
Spectre (R) Circuit Simulator
Version 21.1.0.751.isr19 64bit -- 22 May 2023
Copyright (C) 1989-2023 Cadence Design Systems, Inc. All rights reserved worldwide. Cadence and Spectre are registered trademarks of Cadence Design Systems, Inc. All others are the property of their respective holders.

Includes RSA BSAFE(R) Cryptographic or Security Protocol Software from RSA Security, Inc.

User: ee140-aax   Host: eda-3.EECS.Berkeley.EDU   HostID: 2080922A   PID: 547370
Memory  available: 616.0739 GB  physical: 810.7774 GB
Linux   : Red Hat Enterprise Linux release 8.10 (Ootpa)
CPU Type: AMD EPYC 9454 48-Core Processor
        Socket: Processors [Frequency] (Hyperthreaded Processor)
        0:       0 [1403.8] (),  1 [1500.0] (),  2 [1500.0] (),  3 [1500.0] (),  4 [2100.0] ()
                 5 [1500.0] (),  6 [1500.0] (),  7 [1500.0] (),  8 [1500.0] (),  9 [2750.0] ()
                10 [1500.0] (), 11 [1500.0] (), 12 [1500.0] (), 13 [2100.0] (), 14 [1500.0] ()
                15 [1500.0] (), 16 [1500.0] (), 17 [1500.0] (), 18 [3799.9] (), 19 [1500.0] ()
                20 [1520.0] (), 21 [1500.0] (), 22 [1500.0] (), 23 [3105.5] (), 24 [1500.0] ()
                25 [1500.0] (), 26 [1500.0] (), 27 [1519.9] (), 28 [1500.0] (), 29 [1500.0] ()
                30 [1500.0] (), 31 [1500.0] (), 32 [1500.0] (), 33 [2100.0] (), 34 [1500.0] ()
                35 [1500.0] (), 36 [1500.0] (), 37 [1500.0] (), 38 [2100.0] (), 39 [1500.0] ()
                40 [1500.0] (), 41 [1500.0] (), 42 [1500.0] (), 43 [1500.0] (), 44 [1500.0] ()
                45 [1500.0] (), 46 [1500.0] (), 47 [2100.0] (), 48 [1500.0] (), 49 [1500.0] ()
                50 [1500.0] (), 51 [1500.0] (), 52 [1500.0] (), 53 [1500.0] (), 54 [1500.0] ()
                55 [1500.0] (), 56 [1500.0] (), 57 [3799.9] (), 58 [1500.0] (), 59 [2100.0] ()
                60 [1500.0] (), 61 [1500.0] (), 62 [1500.0] (), 63 [1500.0] (), 64 [1500.0] ()
                65 [1500.0] (), 66 [1500.0] (), 67 [1500.0] (), 68 [1500.0] (), 69 [1500.0] ()
                70 [1500.0] (), 71 [3483.8] (), 72 [1500.0] (), 73 [1500.0] (), 74 [1500.0] ()
                75 [1500.0] (), 76 [1500.0] (), 77 [3799.9] (), 78 [2100.0] (), 79 [1519.9] ()
                80 [1500.0] (), 81 [1500.0] (), 82 [2100.0] (), 83 [1500.0] (), 84 [1500.0] ()
                85 [1500.0] (), 86 [1500.0] (), 87 [1500.0] (), 88 [1500.0] (), 89 [1500.0] ()
                90 [1500.0] (), 91 [1500.0] (), 92 [1500.0] (), 93 [1500.0] (), 94 [1500.0] ()
                95 [2100.0] ()
        
System load averages (1min, 5min, 15min) : 21.7 %, 19.7 %, 21.8 %
Hyperthreading is enabled
HPC is enabled


Simulating `input.scs' on eda-3.EECS.Berkeley.EDU at 2:59:19 AM, Wed May 7, 2025 (process id: 547370).
Current working directory: /home/cc/ee140/sp25/class/ee140-aax/cadence_finalproj/Sim/Final-BGR/spectre/schematic/netlist
Environment variable:
    SPECTRE_DEFAULTS=-E
Command line:
    /share/instsww/cadence/SPECTRE211/tools/bin/spectre -64 input.scs  \
        +escchars +log ../psf/spectre.out -format psfxl -raw ../psf  \
        +aps +mt +lqtimeout 900 -maxw 5 -maxn 5 -env ade  \
        +adespetkn=adespe

Licensing Information:
[02:59:19.062418] Configured Lic search path (21.01-s002): 5280@license-srv.eecs.berkeley.edu:5280@bisc.EECS.Berkeley.EDU

Licensing Information:
[02:59:29.336842] Periodic Lic check successful

Loading /share/instsww/cadence/SPECTRE211/tools.lnx86/cmi/lib/64bit/5.0/libinfineon_sh.so ...
Loading /share/instsww/cadence/SPECTRE211/tools.lnx86/cmi/lib/64bit/5.0/libphilips_o_sh.so ...
Loading /share/instsww/cadence/SPECTRE211/tools.lnx86/cmi/lib/64bit/5.0/libphilips_sh.so ...
Loading /share/instsww/cadence/SPECTRE211/tools.lnx86/cmi/lib/64bit/5.0/libsparam_sh.so ...
Loading /share/instsww/cadence/SPECTRE211/tools.lnx86/cmi/lib/64bit/5.0/libstmodels_sh.so ...
Reading file:  /home/cc/ee140/sp25/class/ee140-aax/cadence_finalproj/Sim/Final-BGR/spectre/schematic/netlist/input.scs
Reading link:  /share/instsww/cadence/SPECTRE211
Reading file:  /share/instsww/cadence/SPECTRE.21.10.751/tools.lnx86/spectre/etc/configs/spectre.cfg
Reading file:  /usr/include/stdc-predef.h
Reading file:  /home/cc/ee140/sp25/class/ee140-aax/cadence_finalproj/sky130_release_0.0.4/models/sky130.lib.spice
Reading file:  /home/cc/ee140/sp25/class/ee140-aax/cadence_finalproj/sky130_release_0.0.4/cells/nfet_01v8/sky130_fd_pr__nfet_01v8__tt.corner.spice
Reading file:  /home/cc/ee140/sp25/class/ee140-aax/cadence_finalproj/sky130_release_0.0.4/cells/nfet_01v8/sky130_fd_pr__nfet_01v8__tt.pm3.spice
Reading file:  /home/cc/ee140/sp25/class/ee140-aax/cadence_finalproj/sky130_release_0.0.4/cells/nfet_01v8_lvt/sky130_fd_pr__nfet_01v8_lvt__tt.corner.spice
Reading file:  /home/cc/ee140/sp25/class/ee140-aax/cadence_finalproj/sky130_release_0.0.4/cells/nfet_01v8_lvt/sky130_fd_pr__nfet_01v8_lvt__tt.pm3.spice
Reading file:  /home/cc/ee140/sp25/class/ee140-aax/cadence_finalproj/sky130_release_0.0.4/cells/pfet_01v8/sky130_fd_pr__pfet_01v8__tt.corner.spice
Reading file:  /home/cc/ee140/sp25/class/ee140-aax/cadence_finalproj/sky130_release_0.0.4/cells/pfet_01v8/sky130_fd_pr__pfet_01v8__tt.pm3.spice
Reading file:  /home/cc/ee140/sp25/class/ee140-aax/cadence_finalproj/sky130_release_0.0.4/cells/nfet_03v3_nvt/sky130_fd_pr__nfet_03v3_nvt__tt.corner.spice
Reading file:  /home/cc/ee140/sp25/class/ee140-aax/cadence_finalproj/sky130_release_0.0.4/cells/nfet_03v3_nvt/sky130_fd_pr__nfet_03v3_nvt.pm3.spice
Reading file:  /home/cc/ee140/sp25/class/ee140-aax/cadence_finalproj/sky130_release_0.0.4/cells/nfet_05v0_nvt/sky130_fd_pr__nfet_05v0_nvt__tt.corner.spice
Reading file:  /home/cc/ee140/sp25/class/ee140-aax/cadence_finalproj/sky130_release_0.0.4/cells/nfet_05v0_nvt/sky130_fd_pr__nfet_05v0_nvt.pm3.spice
Reading file:  /home/cc/ee140/sp25/class/ee140-aax/cadence_finalproj/sky130_release_0.0.4/cells/esd_nfet_01v8/sky130_fd_pr__esd_nfet_01v8__tt.corner.spice
Reading file:  /home/cc/ee140/sp25/class/ee140-aax/cadence_finalproj/sky130_release_0.0.4/cells/esd_nfet_01v8/sky130_fd_pr__esd_nfet_01v8.pm3.spice
Reading file:  /home/cc/ee140/sp25/class/ee140-aax/cadence_finalproj/sky130_release_0.0.4/cells/pfet_01v8_lvt/sky130_fd_pr__pfet_01v8_lvt__tt.corner.spice
Reading file:  /home/cc/ee140/sp25/class/ee140-aax/cadence_finalproj/sky130_release_0.0.4/cells/pfet_01v8_lvt/sky130_fd_pr__pfet_01v8_lvt__tt.pm3.spice
Reading file:  /home/cc/ee140/sp25/class/ee140-aax/cadence_finalproj/sky130_release_0.0.4/cells/pfet_01v8_hvt/sky130_fd_pr__pfet_01v8_hvt__tt.corner.spice
Reading file:  /home/cc/ee140/sp25/class/ee140-aax/cadence_finalproj/sky130_release_0.0.4/cells/pfet_01v8_hvt/sky130_fd_pr__pfet_01v8_hvt__tt.pm3.spice
Reading file:  /home/cc/ee140/sp25/class/ee140-aax/cadence_finalproj/sky130_release_0.0.4/cells/esd_pfet_g5v0d10v5/sky130_fd_pr__esd_pfet_g5v0d10v5__tt.corner.spice
Reading file:  /home/cc/ee140/sp25/class/ee140-aax/cadence_finalproj/sky130_release_0.0.4/cells/esd_pfet_g5v0d10v5/sky130_fd_pr__esd_pfet_g5v0d10v5.pm3.spice
Reading file:  /home/cc/ee140/sp25/class/ee140-aax/cadence_finalproj/sky130_release_0.0.4/cells/pfet_g5v0d10v5/sky130_fd_pr__pfet_g5v0d10v5__tt.corner.spice
Reading file:  /home/cc/ee140/sp25/class/ee140-aax/cadence_finalproj/sky130_release_0.0.4/cells/pfet_g5v0d10v5/sky130_fd_pr__pfet_g5v0d10v5__tt.pm3.spice
Reading file:  /home/cc/ee140/sp25/class/ee140-aax/cadence_finalproj/sky130_release_0.0.4/cells/pfet_g5v0d16v0/sky130_fd_pr__pfet_g5v0d16v0__tt.corner.spice
Reading file:  /home/cc/ee140/sp25/class/ee140-aax/cadence_finalproj/sky130_release_0.0.4/cells/nfet_g5v0d10v5/sky130_fd_pr__nfet_g5v0d10v5__tt.corner.spice
Reading file:  /home/cc/ee140/sp25/class/ee140-aax/cadence_finalproj/sky130_release_0.0.4/cells/nfet_g5v0d10v5/sky130_fd_pr__nfet_g5v0d10v5__tt.pm3.spice
Reading file:  /home/cc/ee140/sp25/class/ee140-aax/cadence_finalproj/sky130_release_0.0.4/cells/nfet_g5v0d16v0/sky130_fd_pr__nfet_g5v0d16v0__tt_discrete.corner.spice
Reading file:  /home/cc/ee140/sp25/class/ee140-aax/cadence_finalproj/sky130_release_0.0.4/cells/nfet_g5v0d16v0/sky130_fd_pr__nfet_g5v0d16v0__subcircuit.pm3.spice
Reading file:  /home/cc/ee140/sp25/class/ee140-aax/cadence_finalproj/sky130_release_0.0.4/cells/nfet_g5v0d16v0/sky130_fd_pr__nfet_g5v0d16v0.pm3.spice
Reading file:  /home/cc/ee140/sp25/class/ee140-aax/cadence_finalproj/sky130_release_0.0.4/cells/esd_nfet_g5v0d10v5/sky130_fd_pr__esd_nfet_g5v0d10v5__tt.corner.spice
Reading file:  /home/cc/ee140/sp25/class/ee140-aax/cadence_finalproj/sky130_release_0.0.4/cells/esd_nfet_g5v0d10v5/sky130_fd_pr__esd_nfet_g5v0d10v5.pm3.spice
Reading file:  /home/cc/ee140/sp25/class/ee140-aax/cadence_finalproj/sky130_release_0.0.4/models/corners/tt/nonfet.spice
Reading file:  /home/cc/ee140/sp25/class/ee140-aax/cadence_finalproj/sky130_release_0.0.4/cells/nfet_01v8/sky130_fd_pr__nfet_01v8__mismatch.corner.spice
Reading file:  /home/cc/ee140/sp25/class/ee140-aax/cadence_finalproj/sky130_release_0.0.4/cells/pfet_01v8/sky130_fd_pr__pfet_01v8__mismatch.corner.spice
Reading file:  /home/cc/ee140/sp25/class/ee140-aax/cadence_finalproj/sky130_release_0.0.4/cells/nfet_01v8_lvt/sky130_fd_pr__nfet_01v8_lvt__mismatch.corner.spice
Reading file:  /home/cc/ee140/sp25/class/ee140-aax/cadence_finalproj/sky130_release_0.0.4/cells/pfet_01v8_lvt/sky130_fd_pr__pfet_01v8_lvt__mismatch.corner.spice
Reading file:  /home/cc/ee140/sp25/class/ee140-aax/cadence_finalproj/sky130_release_0.0.4/cells/pfet_01v8_hvt/sky130_fd_pr__pfet_01v8_hvt__mismatch.corner.spice
Reading file:  /home/cc/ee140/sp25/class/ee140-aax/cadence_finalproj/sky130_release_0.0.4/cells/nfet_g5v0d10v5/sky130_fd_pr__nfet_g5v0d10v5__mismatch.corner.spice
Reading file:  /home/cc/ee140/sp25/class/ee140-aax/cadence_finalproj/sky130_release_0.0.4/cells/pfet_g5v0d10v5/sky130_fd_pr__pfet_g5v0d10v5__mismatch.corner.spice
Reading file:  /home/cc/ee140/sp25/class/ee140-aax/cadence_finalproj/sky130_release_0.0.4/cells/nfet_05v0_nvt/sky130_fd_pr__nfet_05v0_nvt__mismatch.corner.spice
Reading file:  /home/cc/ee140/sp25/class/ee140-aax/cadence_finalproj/sky130_release_0.0.4/cells/nfet_03v3_nvt/sky130_fd_pr__nfet_03v3_nvt__mismatch.corner.spice
Reading file:  /home/cc/ee140/sp25/class/ee140-aax/cadence_finalproj/sky130_release_0.0.4/models/r+c/res_typical__cap_typical.spice
Reading file:  /home/cc/ee140/sp25/class/ee140-aax/cadence_finalproj/sky130_release_0.0.4/models/sky130_fd_pr__model__r+c.model.spice
Reading file:  /home/cc/ee140/sp25/class/ee140-aax/cadence_finalproj/sky130_release_0.0.4/models/r+c.mrp1monte.spice
Reading file:  /home/cc/ee140/sp25/class/ee140-aax/cadence_finalproj/sky130_release_0.0.4/cells/res_generic_nd/sky130_fd_pr__res_generic_nd.model.spice
Reading file:  /home/cc/ee140/sp25/class/ee140-aax/cadence_finalproj/sky130_release_0.0.4/cells/res_generic_pd/sky130_fd_pr__res_generic_pd.model.spice
Reading file:  /home/cc/ee140/sp25/class/ee140-aax/cadence_finalproj/sky130_release_0.0.4/models/parameters/typical.spice
Reading file:  /home/cc/ee140/sp25/class/ee140-aax/cadence_finalproj/sky130_release_0.0.4/models/r+c/res_typical__cap_typical__lin.spice
Reading file:  /home/cc/ee140/sp25/class/ee140-aax/cadence_finalproj/sky130_release_0.0.4/models/capacitors/sky130_fd_pr__model__cap_vpp.model.spice
Reading file:  /home/cc/ee140/sp25/class/ee140-aax/cadence_finalproj/sky130_release_0.0.4/cells/cap_vpp_08p6x07p8_l1m1m2_noshield/sky130_fd_pr__cap_vpp_08p6x07p8_l1m1m2_noshield.model.spice
Reading file:  /home/cc/ee140/sp25/class/ee140-aax/cadence_finalproj/sky130_release_0.0.4/cells/cap_vpp_04p4x04p6_l1m1m2_noshield/sky130_fd_pr__cap_vpp_04p4x04p6_l1m1m2_noshield.model.spice
Reading file:  /home/cc/ee140/sp25/class/ee140-aax/cadence_finalproj/sky130_release_0.0.4/cells/cap_vpp_11p5x11p7_l1m1m2_noshield/sky130_fd_pr__cap_vpp_11p5x11p7_l1m1m2_noshield.model.spice
Reading file:  /home/cc/ee140/sp25/class/ee140-aax/cadence_finalproj/sky130_release_0.0.4/cells/cap_vpp_01p8x01p8_m1m2_noshield/sky130_fd_pr__cap_vpp_01p8x01p8_m1m2_noshield.model.spice
Reading file:  /home/cc/ee140/sp25/class/ee140-aax/cadence_finalproj/sky130_release_0.0.4/cells/cap_vpp_08p6x07p8_m1m2_shieldl1/sky130_fd_pr__cap_vpp_08p6x07p8_m1m2_shieldl1.model.spice
Reading file:  /home/cc/ee140/sp25/class/ee140-aax/cadence_finalproj/sky130_release_0.0.4/cells/cap_vpp_04p4x04p6_m1m2_shieldl1/sky130_fd_pr__cap_vpp_04p4x04p6_m1m2_shieldl1.model.spice
Reading file:  /home/cc/ee140/sp25/class/ee140-aax/cadence_finalproj/sky130_release_0.0.4/cells/cap_vpp_11p5x11p7_m1m2_shieldl1/sky130_fd_pr__cap_vpp_11p5x11p7_m1m2_shieldl1.model.spice
Reading file:  /home/cc/ee140/sp25/class/ee140-aax/cadence_finalproj/sky130_release_0.0.4/cells/cap_vpp_08p6x07p8_l1m1m2_shieldpo_floatm3/sky130_fd_pr__cap_vpp_08p6x07p8_l1m1m2_shieldpo_floatm3.model.spice
Reading file:  /home/cc/ee140/sp25/class/ee140-aax/cadence_finalproj/sky130_release_0.0.4/cells/cap_vpp_04p4x04p6_l1m1m2_shieldpo_floatm3/sky130_fd_pr__cap_vpp_04p4x04p6_l1m1m2_shieldpo_floatm3.model.spice
Reading file:  /home/cc/ee140/sp25/class/ee140-aax/cadence_finalproj/sky130_release_0.0.4/cells/cap_vpp_11p5x11p7_l1m1m2_shieldpom3/sky130_fd_pr__cap_vpp_11p5x11p7_l1m1m2_shieldpom3.model.spice
Reading file:  /home/cc/ee140/sp25/class/ee140-aax/cadence_finalproj/sky130_release_0.0.4/cells/cap_vpp_03p9x03p9_m1m2_shieldl1_floatm3/sky130_fd_pr__cap_vpp_03p9x03p9_m1m2_shieldl1_floatm3.model.spice
Reading file:  /home/cc/ee140/sp25/class/ee140-aax/cadence_finalproj/sky130_release_0.0.4/cells/cap_vpp_04p4x04p6_l1m1m2_noshield/sky130_fd_pr__cap_vpp_04p4x04p6_l1m1m2_noshield_o1.model.spice
Reading file:  /home/cc/ee140/sp25/class/ee140-aax/cadence_finalproj/sky130_release_0.0.4/cells/cap_vpp_08p6x07p8_m1m2_noshield/sky130_fd_pr__cap_vpp_08p6x07p8_m1m2_noshield.model.spice
Reading file:  /home/cc/ee140/sp25/class/ee140-aax/cadence_finalproj/sky130_release_0.0.4/cells/cap_vpp_04p4x04p6_m1m2_noshield/sky130_fd_pr__cap_vpp_04p4x04p6_m1m2_noshield_o2.model.spice
Reading file:  /home/cc/ee140/sp25/class/ee140-aax/cadence_finalproj/sky130_release_0.0.4/cells/cap_vpp_02p4x04p6_m1m2_noshield/sky130_fd_pr__cap_vpp_02p4x04p6_m1m2_noshield.model.spice
Reading file:  /home/cc/ee140/sp25/class/ee140-aax/cadence_finalproj/sky130_release_0.0.4/cells/cap_vpp_04p4x04p6_m1m2_noshield/sky130_fd_pr__cap_vpp_04p4x04p6_m1m2_noshield.model.spice
Reading file:  /home/cc/ee140/sp25/class/ee140-aax/cadence_finalproj/sky130_release_0.0.4/cells/cap_vpp_11p5x11p7_m1m2_noshield/sky130_fd_pr__cap_vpp_11p5x11p7_m1m2_noshield.model.spice
Reading file:  /home/cc/ee140/sp25/class/ee140-aax/cadence_finalproj/sky130_release_0.0.4/cells/npn_05v5/sky130_fd_pr__npn_05v5__t.corner.spice
Reading file:  /home/cc/ee140/sp25/class/ee140-aax/cadence_finalproj/sky130_release_0.0.4/cells/npn_05v5/sky130_fd_pr__npn_05v5_W1p00L1p00.model.spice
Reading file:  /home/cc/ee140/sp25/class/ee140-aax/cadence_finalproj/sky130_release_0.0.4/cells/npn_05v5/sky130_fd_pr__npn_05v5_W1p00L2p00.model.spice
Reading file:  /home/cc/ee140/sp25/class/ee140-aax/cadence_finalproj/sky130_release_0.0.4/cells/npn_11v0/sky130_fd_pr__npn_11v0_W1p00L1p00.model.spice
Reading file:  /home/cc/ee140/sp25/class/ee140-aax/cadence_finalproj/sky130_release_0.0.4/cells/pnp_05v5/sky130_fd_pr__pnp_05v5_W3p40L3p40.model.spice
Reading file:  /home/cc/ee140/sp25/class/ee140-aax/cadence_finalproj/sky130_release_0.0.4/models/corners/tt/specialized_cells.spice
Reading file:  /home/cc/ee140/sp25/class/ee140-aax/cadence_finalproj/sky130_release_0.0.4/cells/special_nfet_latch/sky130_fd_pr__special_nfet_latch__mismatch.corner.spice
Reading file:  /home/cc/ee140/sp25/class/ee140-aax/cadence_finalproj/sky130_release_0.0.4/cells/special_nfet_pass/sky130_fd_pr__special_nfet_pass__mismatch.corner.spice
Reading file:  /home/cc/ee140/sp25/class/ee140-aax/cadence_finalproj/sky130_release_0.0.4/cells/special_nfet_pass_flash/sky130_fd_pr__special_nfet_pass_flash__mismatch.corner.spice
Reading file:  /home/cc/ee140/sp25/class/ee140-aax/cadence_finalproj/sky130_release_0.0.4/cells/special_pfet_pass/sky130_fd_pr__special_pfet_pass__mismatch.corner.spice
Reading file:  /home/cc/ee140/sp25/class/ee140-aax/cadence_finalproj/sky130_release_0.0.4/cells/special_nfet_pass_lvt/sky130_fd_pr__special_nfet_pass_lvt__tt.corner.spice
Reading file:  /home/cc/ee140/sp25/class/ee140-aax/cadence_finalproj/sky130_release_0.0.4/cells/special_nfet_pass_lvt/sky130_fd_pr__special_nfet_pass_lvt.pm3.spice
Reading file:  /home/cc/ee140/sp25/class/ee140-aax/cadence_finalproj/sky130_release_0.0.4/models/all.spice
Reading file:  /home/cc/ee140/sp25/class/ee140-aax/cadence_finalproj/sky130_release_0.0.4/models/parameters/lod.spice
Reading file:  /home/cc/ee140/sp25/class/ee140-aax/cadence_finalproj/sky130_release_0.0.4/models/parasitics/sky130_fd_pr__model__parasitic__diode_ps2nw.model.spice
Reading file:  /home/cc/ee140/sp25/class/ee140-aax/cadence_finalproj/sky130_release_0.0.4/cells/diode_pw2nd_05v5/sky130_fd_pr__diode_pw2nd_05v5.model.spice
Reading file:  /home/cc/ee140/sp25/class/ee140-aax/cadence_finalproj/sky130_release_0.0.4/cells/diode_pd2nw_05v5/sky130_fd_pr__diode_pd2nw_05v5.model.spice
Reading file:  /home/cc/ee140/sp25/class/ee140-aax/cadence_finalproj/sky130_release_0.0.4/cells/diode_pd2nw_05v5_hvt/sky130_fd_pr__diode_pd2nw_05v5_hvt.model.spice
Reading file:  /home/cc/ee140/sp25/class/ee140-aax/cadence_finalproj/sky130_release_0.0.4/cells/diode_pw2nd_11v0/sky130_fd_pr__diode_pw2nd_11v0.model.spice
Reading file:  /home/cc/ee140/sp25/class/ee140-aax/cadence_finalproj/sky130_release_0.0.4/cells/diode_pd2nw_11v0/sky130_fd_pr__diode_pd2nw_11v0.model.spice
Reading file:  /home/cc/ee140/sp25/class/ee140-aax/cadence_finalproj/sky130_release_0.0.4/cells/diode_pw2nd_05v5_nvt/sky130_fd_pr__diode_pw2nd_05v5_nvt.model.spice
Reading file:  /home/cc/ee140/sp25/class/ee140-aax/cadence_finalproj/sky130_release_0.0.4/cells/diode_pw2nd_05v5_lvt/sky130_fd_pr__diode_pw2nd_05v5_lvt.model.spice
Reading file:  /home/cc/ee140/sp25/class/ee140-aax/cadence_finalproj/sky130_release_0.0.4/cells/diode_pd2nw_05v5_lvt/sky130_fd_pr__diode_pd2nw_05v5_lvt.model.spice
Reading file:  /home/cc/ee140/sp25/class/ee140-aax/cadence_finalproj/sky130_release_0.0.4/models/parasitics/sky130_fd_pr__model__parasitic__diode_pw2dn.model.spice
Reading file:  /home/cc/ee140/sp25/class/ee140-aax/cadence_finalproj/sky130_release_0.0.4/models/parasitics/sky130_fd_pr__model__parasitic__diode_ps2dn.model.spice
Reading file:  /home/cc/ee140/sp25/class/ee140-aax/cadence_finalproj/sky130_release_0.0.4/cells/pfet_g5v0d16v0/sky130_fd_pr__pfet_g5v0d16v0__parasitic__diode_pw2dn.model.spice
Reading file:  /home/cc/ee140/sp25/class/ee140-aax/cadence_finalproj/sky130_release_0.0.4/cells/pnp_05v5/sky130_fd_pr__pnp_05v5_W0p68L0p68.model.spice
Reading file:  /home/cc/ee140/sp25/class/ee140-aax/cadence_finalproj/sky130_release_0.0.4/cells/pfet_g5v0d16v0/sky130_fd_pr__pfet_g5v0d16v0.pm3.spice
Reading file:  /home/cc/ee140/sp25/class/ee140-aax/cadence_finalproj/sky130_release_0.0.4/cells/pfet_g5v0d16v0/sky130_fd_pr__pfet_g5v0d16v0__subcircuit.pm3.spice
Reading file:  /home/cc/ee140/sp25/class/ee140-aax/cadence_finalproj/sky130_release_0.0.4/cells/cap_var_lvt/sky130_fd_pr__cap_var_lvt.model.spice
Reading file:  /home/cc/ee140/sp25/class/ee140-aax/cadence_finalproj/sky130_release_0.0.4/cells/cap_vpp_08p6x07p8_l1m1m2_noshield/sky130_fd_pr__cap_vpp_08p6x07p8_l1m1m2_noshield_o1.model.spice
Reading file:  /home/cc/ee140/sp25/class/ee140-aax/cadence_finalproj/sky130_release_0.0.4/models/capacitors/sky130_fd_pr__model__cap_mim.model.spice
Reading file:  /home/cc/ee140/sp25/class/ee140-aax/cadence_finalproj/sky130_release_0.0.4/cells/cap_mim_m3/sky130_fd_pr__cap_mim_m3_1.model.spice
Reading file:  /home/cc/ee140/sp25/class/ee140-aax/cadence_finalproj/sky130_release_0.0.4/cells/cap_mim_m3/sky130_fd_pr__cap_mim_m3_2.model.spice
Reading file:  /home/cc/ee140/sp25/class/ee140-aax/cadence_finalproj/sky130_release_0.0.4/models/capacitors/sky130_fd_pr__model__cap_vpp_only_mos.model.spice
Reading file:  /home/cc/ee140/sp25/class/ee140-aax/cadence_finalproj/sky130_release_0.0.4/cells/cap_vpp_04p4x04p6_m1m2_noshield/sky130_fd_pr__cap_vpp_04p4x04p6_m1m2_noshield_o1nhv.model.spice
Reading file:  /home/cc/ee140/sp25/class/ee140-aax/cadence_finalproj/sky130_release_0.0.4/cells/cap_vpp_04p4x04p6_m1m2_noshield/sky130_fd_pr__cap_vpp_04p4x04p6_m1m2_noshield_o1phv.model.spice
Reading file:  /home/cc/ee140/sp25/class/ee140-aax/cadence_finalproj/sky130_release_0.0.4/models/sonos_p/begin_of_life/mm.spice
Reading file:  /home/cc/ee140/sp25/class/ee140-aax/cadence_finalproj/sky130_release_0.0.4/models/sonos_e/begin_of_life/mm.spice
Reading file:  /home/cc/ee140/sp25/class/ee140-aax/cadence_finalproj/sky130_release_0.0.4/models/head.spice
Reading file:  /home/cc/ee140/sp25/class/ee140-aax/cadence_finalproj/sky130_release_0.0.4/cells/special_nfet_pass/sky130_fd_pr__special_nfet_pass.pm3.spice
Reading file:  /home/cc/ee140/sp25/class/ee140-aax/cadence_finalproj/sky130_release_0.0.4/cells/special_nfet_latch/sky130_fd_pr__special_nfet_latch.pm3.spice
Reading file:  /home/cc/ee140/sp25/class/ee140-aax/cadence_finalproj/sky130_release_0.0.4/cells/special_pfet_pass/sky130_fd_pr__special_pfet_pass.pm3.spice
Reading file:  /home/cc/ee140/sp25/class/ee140-aax/cadence_finalproj/sky130_release_0.0.4/cells/special_nfet_pass_flash/sky130_fd_pr__special_nfet_pass_flash.pm3.spice
Reading file:  /home/cc/ee140/sp25/class/ee140-aax/cadence_finalproj/sky130_release_0.0.4/models/capacitors/sky130_fd_pr__model__cap_vpp_only_pq.model.spice
Reading file:  /home/cc/ee140/sp25/class/ee140-aax/cadence_finalproj/sky130_release_0.0.4/cells/cap_vpp_08p6x07p8_m1m2m3_shieldl1/sky130_fd_pr__cap_vpp_08p6x07p8_m1m2m3_shieldl1.model.spice
Reading file:  /home/cc/ee140/sp25/class/ee140-aax/cadence_finalproj/sky130_release_0.0.4/cells/cap_vpp_04p4x04p6_m1m2m3_shieldl1/sky130_fd_pr__cap_vpp_04p4x04p6_m1m2m3_shieldl1.model.spice
Reading file:  /home/cc/ee140/sp25/class/ee140-aax/cadence_finalproj/sky130_release_0.0.4/cells/cap_vpp_11p5x11p7_m1m2m3_shieldl1/sky130_fd_pr__cap_vpp_11p5x11p7_m1m2m3_shieldl1.model.spice
Reading file:  /home/cc/ee140/sp25/class/ee140-aax/cadence_finalproj/sky130_release_0.0.4/cells/cap_vpp_11p5x11p7_l1m1m2m3_shieldm4/sky130_fd_pr__cap_vpp_11p5x11p7_l1m1m2m3_shieldm4.model.spice
Reading file:  /home/cc/ee140/sp25/class/ee140-aax/cadence_finalproj/sky130_release_0.0.4/cells/cap_vpp_11p5x11p7_l1m1m2m3_shieldpom4/sky130_fd_pr__cap_vpp_11p5x11p7_l1m1m2m3_shieldpom4.model.spice
Reading file:  /home/cc/ee140/sp25/class/ee140-aax/cadence_finalproj/sky130_release_0.0.4/cells/cap_vpp_06p8x06p1_l1m1m2m3_shieldpom4/sky130_fd_pr__cap_vpp_06p8x06p1_l1m1m2m3_shieldpom4.model.spice
Reading file:  /home/cc/ee140/sp25/class/ee140-aax/cadence_finalproj/sky130_release_0.0.4/cells/cap_vpp_06p8x06p1_m1m2m3_shieldl1m4/sky130_fd_pr__cap_vpp_06p8x06p1_m1m2m3_shieldl1m4.model.spice
Reading file:  /home/cc/ee140/sp25/class/ee140-aax/cadence_finalproj/sky130_release_0.0.4/models/capacitors/sky130_fd_pr__model__cap_vpp_only_p.model.spice
Reading file:  /home/cc/ee140/sp25/class/ee140-aax/cadence_finalproj/sky130_release_0.0.4/cells/cap_vpp_11p5x11p7_l1m1m2m3m4_shieldm5/sky130_fd_pr__cap_vpp_11p5x11p7_l1m1m2m3m4_shieldm5.model.spice
Reading file:  /home/cc/ee140/sp25/class/ee140-aax/cadence_finalproj/sky130_release_0.0.4/cells/cap_vpp_11p5x11p7_l1m1m2m3m4_shieldpom5/sky130_fd_pr__cap_vpp_11p5x11p7_l1m1m2m3m4_shieldpom5.model.spice
Reading file:  /home/cc/ee140/sp25/class/ee140-aax/cadence_finalproj/sky130_release_0.0.4/cells/cap_vpp_11p5x11p7_m1m2m3m4_shieldl1m5/sky130_fd_pr__cap_vpp_11p5x11p7_m1m2m3m4_shieldl1m5.model.spice
Reading file:  /home/cc/ee140/sp25/class/ee140-aax/cadence_finalproj/sky130_release_0.0.4/cells/cap_vpp_11p5x11p7_m1m4_noshield/sky130_fd_pr__cap_vpp_11p5x11p7_m1m4_noshield.model.spice
Reading file:  /home/cc/ee140/sp25/class/ee140-aax/cadence_finalproj/sky130_release_0.0.4/cells/cap_vpp_11p5x11p7_m1m2m3m4_shieldm5/sky130_fd_pr__cap_vpp_11p5x11p7_m1m2m3m4_shieldm5.model.spice
Reading file:  /home/cc/ee140/sp25/class/ee140-aax/cadence_finalproj/sky130_release_0.0.4/cells/cap_vpp_08p6x07p8_m1m2m3_shieldl1m5_floatm4/sky130_fd_pr__cap_vpp_08p6x07p8_m1m2m3_shieldl1m5_floatm4.model.spice
Reading file:  /home/cc/ee140/sp25/class/ee140-aax/cadence_finalproj/sky130_release_0.0.4/cells/cap_vpp_04p4x04p6_m1m2m3_shieldl1m5_floatm4/sky130_fd_pr__cap_vpp_04p4x04p6_m1m2m3_shieldl1m5_floatm4.model.spice
Reading file:  /home/cc/ee140/sp25/class/ee140-aax/cadence_finalproj/sky130_release_0.0.4/cells/cap_vpp_11p5x11p7_m1m2m3_shieldl1m5_floatm4/sky130_fd_pr__cap_vpp_11p5x11p7_m1m2m3_shieldl1m5_floatm4.model.spice
Reading file:  /home/cc/ee140/sp25/class/ee140-aax/cadence_finalproj/sky130_release_0.0.4/cells/cap_vpp_11p3x11p8_l1m1m2m3m4_shieldm5/sky130_fd_pr__cap_vpp_11p3x11p8_l1m1m2m3m4_shieldm5_nhv.model.spice
Reading file:  /home/cc/ee140/sp25/class/ee140-aax/cadence_finalproj/sky130_release_0.0.4/cells/cap_vpp_11p3x11p8_l1m1m2m3m4_shieldm5/sky130_fd_pr__cap_vpp_11p3x11p8_l1m1m2m3m4_shieldm5_nhv__base.model.spice
Reading file:  /home/cc/ee140/sp25/class/ee140-aax/cadence_finalproj/sky130_release_0.0.4/cells/cap_vpp_11p5x11p7_l1m1m2m3m4_shieldpom5/sky130_fd_pr__cap_vpp_11p5x11p7_l1m1m2m3m4_shieldpom5_x.model.spice
Reading file:  /home/cc/ee140/sp25/class/ee140-aax/cadence_finalproj/sky130_release_0.0.4/cells/cap_vpp_02p9x06p1_m1m2m3m4_shieldl1/sky130_fd_pr__cap_vpp_02p9x06p1_m1m2m3m4_shieldl1_fingercap2.model.spice
Reading file:  /home/cc/ee140/sp25/class/ee140-aax/cadence_finalproj/sky130_release_0.0.4/cells/cap_vpp_02p7x11p1_m1m2m3m4_shieldl1/sky130_fd_pr__cap_vpp_02p7x11p1_m1m2m3m4_shieldl1_fingercap.model.spice
Reading file:  /home/cc/ee140/sp25/class/ee140-aax/cadence_finalproj/sky130_release_0.0.4/cells/cap_vpp_02p7x21p1_m1m2m3m4_shieldl1/sky130_fd_pr__cap_vpp_02p7x21p1_m1m2m3m4_shieldl1_fingercap.model.spice
Reading file:  /home/cc/ee140/sp25/class/ee140-aax/cadence_finalproj/sky130_release_0.0.4/cells/cap_vpp_02p7x41p1_m1m2m3m4_shieldl1/sky130_fd_pr__cap_vpp_02p7x41p1_m1m2m3m4_shieldl1_fingercap.model.spice
Reading file:  /home/cc/ee140/sp25/class/ee140-aax/cadence_finalproj/sky130_release_0.0.4/cells/cap_vpp_02p7x06p1_m1m2m3m4_shieldl1/sky130_fd_pr__cap_vpp_02p7x06p1_m1m2m3m4_shieldl1_fingercap.model.spice
Reading file:  /home/cc/ee140/sp25/class/ee140-aax/cadence_finalproj/sky130_release_0.0.4/cells/cap_vpp_11p3x11p3_m1m2m3m4_shieldl1/sky130_fd_pr__cap_vpp_11p3x11p3_m1m2m3m4_shieldl1_wafflecap.model.spice
Reading file:  /home/cc/ee140/sp25/class/ee140-aax/cadence_finalproj/sky130_release_0.0.4/cells/cap_vpp_05p9x05p9_m1m2m3m4_shieldl1/sky130_fd_pr__cap_vpp_05p9x05p9_m1m2m3m4_shieldl1_wafflecap.model.spice
Reading file:  /home/cc/ee140/sp25/class/ee140-aax/cadence_finalproj/sky130_release_0.0.4/cells/cap_vpp_44p7x23p1_pol1m1m2m3m4m5_noshield/sky130_fd_pr__cap_vpp_44p7x23p1_pol1m1m2m3m4m5_noshield.model.spice
Reading file:  /home/cc/ee140/sp25/class/ee140-aax/cadence_finalproj/sky130_release_0.0.4/models/sky130_fd_pr__model__linear.model.spice
Reading file:  /home/cc/ee140/sp25/class/ee140-aax/cadence_finalproj/sky130_release_0.0.4/models/parasitics/sky130_fd_pr__model__parasitic__res_po.model.spice
Reading file:  /home/cc/ee140/sp25/class/ee140-aax/cadence_finalproj/sky130_release_0.0.4/cells/res_xhigh_po/sky130_fd_pr__res_xhigh_po.model.spice
Reading file:  /home/cc/ee140/sp25/class/ee140-aax/cadence_finalproj/sky130_release_0.0.4/cells/res_high_po/sky130_fd_pr__res_high_po.model.spice
Reading file:  /home/cc/ee140/sp25/class/ee140-aax/cadence_finalproj/sky130_release_0.0.4/cells/res_xhigh_po/sky130_fd_pr__res_xhigh_po_0p35.model.spice
Reading file:  /home/cc/ee140/sp25/class/ee140-aax/cadence_finalproj/sky130_release_0.0.4/cells/res_xhigh_po/sky130_fd_pr__res_xhigh_po_0p69.model.spice
Reading file:  /home/cc/ee140/sp25/class/ee140-aax/cadence_finalproj/sky130_release_0.0.4/cells/res_xhigh_po/sky130_fd_pr__res_xhigh_po_1p41.model.spice
Reading file:  /home/cc/ee140/sp25/class/ee140-aax/cadence_finalproj/sky130_release_0.0.4/cells/res_xhigh_po/sky130_fd_pr__res_xhigh_po_2p85.model.spice
Reading file:  /home/cc/ee140/sp25/class/ee140-aax/cadence_finalproj/sky130_release_0.0.4/cells/res_xhigh_po/sky130_fd_pr__res_xhigh_po_5p73.model.spice
Reading file:  /home/cc/ee140/sp25/class/ee140-aax/cadence_finalproj/sky130_release_0.0.4/cells/res_xhigh_po/sky130_fd_pr__res_xhigh_po__base.model.spice
Reading file:  /home/cc/ee140/sp25/class/ee140-aax/cadence_finalproj/sky130_release_0.0.4/cells/res_high_po/sky130_fd_pr__res_high_po_0p35.model.spice
Reading file:  /home/cc/ee140/sp25/class/ee140-aax/cadence_finalproj/sky130_release_0.0.4/cells/res_high_po/sky130_fd_pr__res_high_po_0p69.model.spice
Reading file:  /home/cc/ee140/sp25/class/ee140-aax/cadence_finalproj/sky130_release_0.0.4/cells/res_high_po/sky130_fd_pr__res_high_po_1p41.model.spice
Reading file:  /home/cc/ee140/sp25/class/ee140-aax/cadence_finalproj/sky130_release_0.0.4/cells/res_high_po/sky130_fd_pr__res_high_po_2p85.model.spice
Reading file:  /home/cc/ee140/sp25/class/ee140-aax/cadence_finalproj/sky130_release_0.0.4/cells/res_high_po/sky130_fd_pr__res_high_po_5p73.model.spice
Reading file:  /home/cc/ee140/sp25/class/ee140-aax/cadence_finalproj/sky130_release_0.0.4/cells/rf_nfet_g5v0d10v5/sky130_fd_pr__rf_nfet_g5v0d10v5.pm3.spice
Reading file:  /home/cc/ee140/sp25/class/ee140-aax/cadence_finalproj/sky130_release_0.0.4/cells/rf_nfet_01v8_lvt/sky130_fd_pr__rf_nfet_01v8_lvt.pm3.spice
Reading file:  /home/cc/ee140/sp25/class/ee140-aax/cadence_finalproj/sky130_release_0.0.4/cells/rf_nfet_01v8/sky130_fd_pr__rf_nfet_01v8.pm3.spice
Reading file:  /home/cc/ee140/sp25/class/ee140-aax/cadence_finalproj/sky130_release_0.0.4/cells/rf_pfet_01v8/sky130_fd_pr__rf_pfet_01v8.pm3.spice
Reading file:  /home/cc/ee140/sp25/class/ee140-aax/cadence_finalproj/sky130_release_0.0.4/cells/rf_pfet_01v8_mvt/sky130_fd_pr__rf_pfet_01v8_mvt.pm3.spice
Reading file:  /home/cc/ee140/sp25/class/ee140-aax/cadence_finalproj/sky130_release_0.0.4/models/corners/tt/rf.spice
Reading file:  /home/cc/ee140/sp25/class/ee140-aax/cadence_finalproj/sky130_release_0.0.4/cells/rf_nfet_01v8/sky130_fd_pr__rf_nfet_01v8_b__tt.corner.spice
Reading file:  /home/cc/ee140/sp25/class/ee140-aax/cadence_finalproj/sky130_release_0.0.4/cells/rf_nfet_01v8/sky130_fd_pr__rf_nfet_01v8_b.pm3.spice
Reading file:  /home/cc/ee140/sp25/class/ee140-aax/cadence_finalproj/sky130_release_0.0.4/cells/rf_nfet_01v8_lvt/sky130_fd_pr__rf_nfet_01v8_lvt_b__tt.corner.spice
Reading file:  /home/cc/ee140/sp25/class/ee140-aax/cadence_finalproj/sky130_release_0.0.4/cells/rf_nfet_01v8_lvt/sky130_fd_pr__rf_nfet_01v8_lvt_b.pm3.spice
Reading file:  /home/cc/ee140/sp25/class/ee140-aax/cadence_finalproj/sky130_release_0.0.4/cells/rf_nfet_g5v0d10v5/sky130_fd_pr__rf_nfet_g5v0d10v5_b__tt.corner.spice
Reading file:  /home/cc/ee140/sp25/class/ee140-aax/cadence_finalproj/sky130_release_0.0.4/cells/rf_nfet_g5v0d10v5/sky130_fd_pr__rf_nfet_g5v0d10v5_b.pm3.spice
Reading file:  /home/cc/ee140/sp25/class/ee140-aax/cadence_finalproj/sky130_release_0.0.4/cells/rf_pfet_01v8/sky130_fd_pr__rf_pfet_01v8_b__tt.corner.spice
Reading file:  /home/cc/ee140/sp25/class/ee140-aax/cadence_finalproj/sky130_release_0.0.4/cells/rf_pfet_01v8/sky130_fd_pr__rf_pfet_01v8_b.pm3.spice
Reading file:  /home/cc/ee140/sp25/class/ee140-aax/cadence_finalproj/sky130_release_0.0.4/cells/rf_nfet_01v8/sky130_fd_pr__rf_nfet_01v8__mismatch.corner.spice
Reading file:  /home/cc/ee140/sp25/class/ee140-aax/cadence_finalproj/sky130_release_0.0.4/cells/rf_nfet_01v8_lvt/sky130_fd_pr__rf_nfet_01v8_lvt__mismatch.corner.spice
Reading file:  /home/cc/ee140/sp25/class/ee140-aax/cadence_finalproj/sky130_release_0.0.4/cells/rf_nfet_g5v0d10v5/sky130_fd_pr__rf_nfet_g5v0d10v5__mismatch.corner.spice
Reading file:  /home/cc/ee140/sp25/class/ee140-aax/cadence_finalproj/sky130_release_0.0.4/cells/rf_pfet_01v8/sky130_fd_pr__rf_pfet_01v8__mismatch.corner.spice
Reading file:  /home/cc/ee140/sp25/class/ee140-aax/cadence_finalproj/sky130_release_0.0.4/cells/rf_pfet_01v8_mvt/sky130_fd_pr__rf_pfet_01v8_mvt__tt_discrete.corner.spice
Reading file:  /home/cc/ee140/sp25/class/ee140-aax/cadence_finalproj/sky130_release_0.0.4/cells/pfet_01v8_mvt/sky130_fd_pr__pfet_01v8_mvt.pm3.spice
Reading file:  /home/cc/ee140/sp25/class/ee140-aax/cadence_finalproj/sky130_release_0.0.4/cells/rf_pfet_01v8_mvt/sky130_fd_pr__rf_pfet_01v8_mvt__mismatch.corner.spice
Reading file:  /home/cc/ee140/sp25/class/ee140-aax/cadence_finalproj/sky130_release_0.0.4/cells/pfet_20v0/sky130_fd_pr__pfet_20v0__tt_discrete.corner.spice
Reading file:  /home/cc/ee140/sp25/class/ee140-aax/cadence_finalproj/sky130_release_0.0.4/cells/pfet_20v0/sky130_fd_pr__pfet_20v0__subcircuit.pm3.spice
Reading file:  /home/cc/ee140/sp25/class/ee140-aax/cadence_finalproj/sky130_release_0.0.4/cells/pfet_20v0/sky130_fd_pr__pfet_20v0__parasitic__diode_pw2dn.model.spice
Reading file:  /home/cc/ee140/sp25/class/ee140-aax/cadence_finalproj/sky130_release_0.0.4/cells/nfet_20v0/sky130_fd_pr__nfet_20v0__tt_discrete.corner.spice
Reading file:  /home/cc/ee140/sp25/class/ee140-aax/cadence_finalproj/sky130_release_0.0.4/cells/nfet_20v0/sky130_fd_pr__nfet_20v0__subcircuit.pm3.spice
Reading file:  /home/cc/ee140/sp25/class/ee140-aax/cadence_finalproj/sky130_release_0.0.4/models/parasitics/sky130_fd_pr__model__parasitic__diode_pw2dn__extended_drain.model.spice
Reading file:  /home/cc/ee140/sp25/class/ee140-aax/cadence_finalproj/sky130_release_0.0.4/cells/diode_pw2nd_05v5/sky130_fd_pr__diode_pw2nd_05v5__extended_drain.model.spice
Reading file:  /home/cc/ee140/sp25/class/ee140-aax/cadence_finalproj/sky130_release_0.0.4/cells/nfet_20v0_iso/sky130_fd_pr__nfet_20v0_iso__subcircuit.pm3.spice
Reading file:  /home/cc/ee140/sp25/class/ee140-aax/cadence_finalproj/sky130_release_0.0.4/models/parasitics/sky130_fd_pr__model__parasitic__diode_ps2dn__extended_drain.model.spice
Reading file:  /home/cc/ee140/sp25/class/ee140-aax/cadence_finalproj/sky130_release_0.0.4/cells/nfet_20v0_reverse_iso/sky130_fd_pr__nfet_20v0_reverse_iso__subcircuit.pm3.spice
Reading file:  /home/cc/ee140/sp25/class/ee140-aax/cadence_finalproj/sky130_release_0.0.4/cells/nfet_20v0_zvt/sky130_fd_pr__nfet_20v0_zvt__tt_discrete.corner.spice
Reading file:  /home/cc/ee140/sp25/class/ee140-aax/cadence_finalproj/sky130_release_0.0.4/cells/nfet_20v0_zvt/sky130_fd_pr__nfet_20v0_zvt__subcircuit.pm3.spice
Reading file:  /home/cc/ee140/sp25/class/ee140-aax/cadence_finalproj/sky130_release_0.0.4/cells/nfet_20v0_zvt/sky130_fd_pr__nfet_20v0_zvt__parasitic__diode_ps2dn__extended_drain.model.spice
Reading file:  /home/cc/ee140/sp25/class/ee140-aax/cadence_finalproj/sky130_release_0.0.4/cells/nfet_20v0_nvt/sky130_fd_pr__nfet_20v0_nvt__tt_discrete.corner.spice
Reading file:  /home/cc/ee140/sp25/class/ee140-aax/cadence_finalproj/sky130_release_0.0.4/cells/nfet_20v0_nvt/sky130_fd_pr__nfet_20v0_nvt__subcircuit.pm3.spice
Reading file:  /home/cc/ee140/sp25/class/ee140-aax/cadence_finalproj/sky130_release_0.0.4/cells/nfet_20v0_nvt/sky130_fd_pr__nfet_20v0_nvt__parasitic__diode_ps2dn.model.spice
Time for NDB Parsing: CPU = 476.604 ms, elapsed = 10.9234 s.
Time accumulated: CPU = 595.704 ms, elapsed = 10.9234 s.
Peak resident memory used = 174 Mbytes.

TCP: opening server port eda-3.EECS.Berkeley.EDU:46729
Time for Elaboration: CPU = 22.364 ms, elapsed = 24.78 ms.
Time accumulated: CPU = 618.157 ms, elapsed = 10.9483 s.
Peak resident memory used = 186 Mbytes.


Notice from spectre during hierarchy flattening.
    The value 'psf' specified for the 'checklimitdest' option will no longer be supported in future releases. Use 'spectre -h' to see other recommended values for the 'checklimitdest' option.



Warning from spectre during hierarchy flattening.
    WARNING (SPECTRE-8527): There are some nodes and instances removed from the netlist topology check. Check the circuit and correct the topology. Or use preserve_inst to keep them if necessary.

***********************************************
  Total removed instances 12 ( dangling 12, terminals connected together 0)  

Warning from spectre during hierarchy flattening.
    WARNING (SPECTRE-8529): Dangling instance. R5 is removed.
    WARNING (SPECTRE-8528): The I18.R0 device is removed because its terminals are connected together. Check the device in the netlist file to ensure that this warning can be ignored.
    WARNING (SPECTRE-8528): The I18.NM1.msky130_fd_pr__nfet_01v8 device is removed because its terminals are connected together. Check the device in the netlist file to ensure that this warning can be ignored.
    WARNING (SPECTRE-8528): The I18.NM5.msky130_fd_pr__nfet_g5v0d10v5 device is removed because its terminals are connected together. Check the device in the netlist file to ensure that this warning can be ignored.
    WARNING (SPECTRE-8528): The I18.NM3.msky130_fd_pr__nfet_g5v0d10v5 device is removed because its terminals are connected together. Check the device in the netlist file to ensure that this warning can be ignored.
    WARNING (SPECTRE-8528): The I18.NM2.msky130_fd_pr__nfet_g5v0d10v5 device is removed because its terminals are connected together. Check the device in the netlist file to ensure that this warning can be ignored.
        Further occurrences of this warning will be suppressed.


  Total removed nodes 14 ( dangling nodes 14, floating nodes 0 )

Warning from spectre during hierarchy flattening.
    WARNING (SPECTRE-8530): Dangling node. VPTAT is removed.
    WARNING (SPECTRE-8530): Dangling node. net5 is removed.
    WARNING (SPECTRE-8530): Dangling node. net17 is removed.
    WARNING (SPECTRE-8530): Dangling node. net18 is removed.
    WARNING (SPECTRE-8530): Dangling node. net15 is removed.
        Further occurrences of this warning will be suppressed.

***********************************************
Time for EDB Visiting: CPU = 1.033 ms, elapsed = 1.04308 ms.
Time accumulated: CPU = 619.282 ms, elapsed = 10.9494 s.
Peak resident memory used = 187 Mbytes.


Notice from spectre during initial setup.
    Multithreading is disabled due to the size of the design being too small.


Global user options:
         psfversion = 1.4.0
            vabstol = 1e-06
            iabstol = 1e-12
               temp = 27
           homotopy = 5
              limit = delta
         compatible = spice2
               gmin = 1e-12
             rforce = 1
           maxnotes = 5
           maxwarns = 5
             digits = 5
               cols = 80
             pivrel = 0.001
           sensfile = ../psf/sens.output
     checklimitdest = psf
               save = allpub
             reltol = 0.0001
               tnom = 27
             scalem = 1
              scale = 1

Scoped user options:

Circuit inventory:
              nodes 28
              bsim4 26    
           resistor 6     
            vsource 2     

Analysis and control statement inventory:
               info 7     
               tran 1     

Output statements:
             .probe 0     
           .measure 0     
               save 0     


Notice from spectre during initial setup.
    1 vsources are shorted because their absolute value is less than or equal to 'vabsshort'.
    APS enabled.
    15 warnings suppressed.

Time for parsing: CPU = 2.594 ms, elapsed = 4.68802 ms.
Time accumulated: CPU = 621.938 ms, elapsed = 10.9541 s.
Peak resident memory used = 191 Mbytes.

~~~~~~~~~~~~~~~~~~~~~~
Pre-Simulation Summary
~~~~~~~~~~~~~~~~~~~~~~
   -   (APS) Multi-threading. The recommended number of threads is 1, consider adding +mt=1 on command line.
~~~~~~~~~~~~~~~~~~~~~~

************************************************
Transient Analysis `tran': time = (0 s -> 20 us)
************************************************
DC simulation time: CPU = 401 us, elapsed = 401.02 us.

Opening the PSFXL file ../psf/tran.tran.tran ...
Important parameter values:
    start = 0 s
    outputstart = 0 s
    stop = 20 us
    step = 20 ns
    maxstep = 200 ns
    ic = all
    useprevic = no
    skipdc = no
    reltol = 10e-06
    abstol(V) = 1 uV
    abstol(I) = 1 pA
    temp = 27 C
    tnom = 27 C
    tempeffects = all
    errpreset = conservative
    method = gear2only
    lteratio = 10
    relref = alllocal
    cmin = 0 F
    gmin = 1 pS
    rabsshort = 1 mOhm


Notice from spectre during transient analysis `tran'.
    Multithreading is disabled due to the size of the design being too small.


Output and IC/nodeset summary:
                 save   1       (current)
                 save   13      (voltage)
                 save   1       (unitless)

    tran: time = 565.4 ns    (2.83 %), step = 200 ns          (1 %)
    tran: time = 1.565 us    (7.83 %), step = 200 ns          (1 %)
    tran: time = 2.565 us    (12.8 %), step = 200 ns          (1 %)
    tran: time = 3.565 us    (17.8 %), step = 200 ns          (1 %)
    tran: time = 4.565 us    (22.8 %), step = 200 ns          (1 %)
    tran: time = 5.565 us    (27.8 %), step = 200 ns          (1 %)
    tran: time = 6.565 us    (32.8 %), step = 200 ns          (1 %)
    tran: time = 7.565 us    (37.8 %), step = 200 ns          (1 %)
    tran: time = 8.565 us    (42.8 %), step = 200 ns          (1 %)
    tran: time = 9.565 us    (47.8 %), step = 200 ns          (1 %)
    tran: time = 10.57 us    (52.8 %), step = 200 ns          (1 %)
    tran: time = 11.57 us    (57.8 %), step = 200 ns          (1 %)
    tran: time = 12.57 us    (62.8 %), step = 200 ns          (1 %)
    tran: time = 13.57 us    (67.8 %), step = 200 ns          (1 %)
    tran: time = 14.57 us    (72.8 %), step = 200 ns          (1 %)
    tran: time = 15.57 us    (77.8 %), step = 200 ns          (1 %)
    tran: time = 16.57 us    (82.8 %), step = 200 ns          (1 %)
    tran: time = 17.57 us    (87.8 %), step = 200 ns          (1 %)
    tran: time = 18.57 us    (92.8 %), step = 200 ns          (1 %)
    tran: time = 19.57 us    (97.8 %), step = 200 ns          (1 %)
Number of accepted tran steps =             788

Maximum value achieved for any signal of each quantity: 
V: V(net2) = 3.2 V
I: I(V1:p) = 315 uA

~~~~~~~~~~~~~~~~~~~~~~~~~~~~~~~~~
Post-Transient Simulation Summary
~~~~~~~~~~~~~~~~~~~~~~~~~~~~~~~~~
   -   To further speed up simulation, consider
          add ++aps on command line
   -   Non-default settings that could significantly slow down simulation
          errpreset = conservative, default moderate
          reltol = 10e-06, default 100e-06 (conservative)
~~~~~~~~~~~~~~~~~~~~~~~~~~~~~~~~~


During simulation, the CPU load for active processors is :
         0 (19.4 %)      1 (9.2 %)       2 (13.5 %)      3 (9.6 %)
         4 (8.8 %)       5 (5.5 %)       6 (5.2 %)       7 (7.2 %)
         8 (16.3 %)      9 (22.2 %)     10 (7.2 %)      11 (9.0 %)
        12 (7.8 %)      13 (7.0 %)      14 (13.6 %)     15 (8.1 %)
        16 (6.7 %)      17 (12.5 %)     18 (70.9 %)     19 (7.3 %)
        20 (3.8 %)      21 (14.1 %)     22 (4.0 %)      23 (15.4 %)
        24 (6.3 %)      25 (7.2 %)      26 (6.4 %)      27 (9.2 %)
        28 (3.8 %)      29 (13.1 %)     30 (7.1 %)      31 (7.5 %)
        32 (5.3 %)      33 (11.0 %)     34 (5.7 %)      35 (5.5 %)
        36 (4.5 %)      37 (5.8 %)      38 (12.3 %)     39 (18.2 %)
        40 (6.5 %)      41 (7.9 %)      42 (13.4 %)     43 (6.5 %)
        44 (14.6 %)     45 (8.2 %)      46 (5.0 %)      47 (5.5 %)
        48 (6.5 %)      49 (6.1 %)      50 (22.7 %)     51 (7.8 %)
        52 (6.7 %)      53 (7.5 %)      54 (7.0 %)      55 (7.4 %)
        56 (21.8 %)     57 (5.4 %)      58 (4.6 %)      59 (6.0 %)
        60 (12.3 %)     61 (6.1 %)      62 (11.4 %)     63 (5.2 %)
        64 (7.4 %)      65 (12.8 %)     66 (29.5 %)     67 (2.5 %)
        68 (2.8 %)      69 (4.1 %)      70 (2.0 %)      71 (16.2 %)
        72 (3.9 %)      73 (8.6 %)      74 (6.8 %)      75 (6.8 %)
        76 (6.2 %)      77 (6.4 %)      78 (9.8 %)      79 (7.6 %)
        80 (6.2 %)      81 (7.6 %)      82 (5.2 %)      83 (8.3 %)
        84 (7.4 %)      85 (6.5 %)      86 (5.3 %)      87 (8.7 %)
        88 (6.2 %)      89 (5.2 %)      90 (7.1 %)      91 (6.6 %)
        92 (7.0 %)      93 (4.3 %)      94 (6.0 %)      95 (6.3 %)
        Total: 883.5%
Initial condition solution time: CPU = 439 us, elapsed = 439.882 us.
Intrinsic tran analysis time:    CPU = 38.399 ms, elapsed = 44.8611 ms.
Total time required for tran analysis `tran': CPU = 40.029 ms, elapsed = 48.135 ms, util. = 83.2%.
Time accumulated: CPU = 668.747 ms, elapsed = 11.0154 s.
Peak resident memory used = 198 Mbytes.

finalTimeOP: writing operating point information to rawfile.

Opening the PSF file ../psf/finalTimeOP.info ...
modelParameter: writing model parameter values to rawfile.

Opening the PSF file ../psf/modelParameter.info ...
element: writing instance parameter values to rawfile.

Opening the PSF file ../psf/element.info ...
outputParameter: writing output parameter values to rawfile.

Opening the PSF file ../psf/outputParameter.info ...
designParamVals: writing netlist parameters to rawfile.

Opening the PSFASCII file ../psf/designParamVals.info ...
primitives: writing primitives to rawfile.

Opening the PSFASCII file ../psf/primitives.info.primitives ...
subckts: writing subcircuits to rawfile.

Opening the PSFASCII file ../psf/subckts.info.subckts ...
Licensing Information:
Lic Summary:
[02:59:30.144161] Cdslmd servers:5280@license-srv.eecs.berkeley.edu:5280@bisc.EECS.Berkeley.EDU
[02:59:30.144201] Feature usage summary:
[02:59:30.144202] Virtuoso_Multi_mode_Simulation


Aggregate audit (2:59:30 AM, Wed May 7, 2025):
Time used: CPU = 729 ms, elapsed = 11.1 s, util. = 6.57%.
Time spent in licensing: elapsed = 10.1 s, percentage of total = 90.6%.
Peak memory used = 205 Mbytes.
Simulation started at: 2:59:19 AM, Wed May 7, 2025, ended at: 2:59:30 AM, Wed May 7, 2025, with elapsed time (wall clock): 11.1 s.
spectre completes with 0 errors, 12 warnings, and 7 notices.
