
Spectre (R) Circuit Simulator
Version 21.1.0.751.isr19 64bit -- 22 May 2023
Copyright (C) 1989-2023 Cadence Design Systems, Inc. All rights reserved worldwide. Cadence and Spectre are registered trademarks of Cadence Design Systems, Inc. All others are the property of their respective holders.

Includes RSA BSAFE(R) Cryptographic or Security Protocol Software from RSA Security, Inc.

User: ee140-tab   Host: eda-4.EECS.Berkeley.EDU   HostID: 2080932A   PID: 3041669
Memory  available: 778.7032 GB  physical: 810.7774 GB
Linux   : Red Hat Enterprise Linux release 8.10 (Ootpa)
CPU Type: AMD EPYC 9454 48-Core Processor
        Socket: Processors [Frequency] (Hyperthreaded Processor)
        0:       0 [2100.0] (),  1 [1500.0] (),  2 [1500.0] (),  3 [1500.0] (),  4 [1500.0] ()
                 5 [1500.0] (),  6 [1500.0] (),  7 [1500.0] (),  8 [1500.0] (),  9 [1500.0] ()
                10 [1500.0] (), 11 [1500.0] (), 12 [1500.0] (), 13 [1500.0] (), 14 [1500.0] ()
                15 [1500.0] (), 16 [1500.0] (), 17 [1500.0] (), 18 [1500.0] (), 19 [1500.0] ()
                20 [1500.0] (), 21 [1500.0] (), 22 [1500.0] (), 23 [2100.0] (), 24 [1500.0] ()
                25 [1500.0] (), 26 [1500.0] (), 27 [1500.0] (), 28 [1500.0] (), 29 [1500.0] ()
                30 [1500.0] (), 31 [1500.0] (), 32 [1500.0] (), 33 [1500.0] (), 34 [1500.0] ()
                35 [1500.0] (), 36 [2100.0] (), 37 [1500.0] (), 38 [1500.0] (), 39 [1500.0] ()
                40 [1500.0] (), 41 [1500.0] (), 42 [1500.0] (), 43 [1500.0] (), 44 [1500.0] ()
                45 [1500.0] (), 46 [1500.0] (), 47 [1500.0] (), 48 [1500.0] (), 49 [1500.0] ()
                50 [1500.0] (), 51 [1500.0] (), 52 [1500.0] (), 53 [1500.0] (), 54 [1500.0] ()
                55 [1500.0] (), 56 [1500.0] (), 57 [2100.0] (), 58 [1500.0] (), 59 [1500.0] ()
                60 [1500.0] (), 61 [1500.0] (), 62 [1500.0] (), 63 [1500.0] (), 64 [1500.0] ()
                65 [1500.0] (), 66 [1500.0] (), 67 [1500.0] (), 68 [1500.0] (), 69 [1500.0] ()
                70 [1500.0] (), 71 [1500.0] (), 72 [1500.0] (), 73 [1500.0] (), 74 [2815.1] ()
                75 [1500.0] (), 76 [1500.0] (), 77 [1500.0] (), 78 [1500.0] (), 79 [1500.0] ()
                80 [1500.0] (), 81 [1500.0] (), 82 [1500.0] (), 83 [1500.0] (), 84 [1500.0] ()
                85 [1500.0] (), 86 [1500.0] (), 87 [1500.0] (), 88 [1500.0] (), 89 [1500.0] ()
                90 [1500.0] (), 91 [1500.0] (), 92 [1500.0] (), 93 [1500.0] (), 94 [1500.0] ()
                95 [1500.0] ()
        
System load averages (1min, 5min, 15min) : 0.3 %, 0.8 %, 0.9 %
Hyperthreading is enabled
HPC is enabled


Simulating `input.scs' on eda-4.EECS.Berkeley.EDU at 4:04:05 PM, Sun Apr 20, 2025 (process id: 3041669).
Current working directory: /home/cc/ee140/sp25/staff/ee140-tab/cadence/cadence_finalproj/Sim/zz_EE140_Sp20_system/spectre/schematic/netlist
Environment variable:
    SPECTRE_DEFAULTS=-E
Command line:
    /share/instsww/cadence/SPECTRE211/tools/bin/spectre -64 input.scs  \
        +escchars +log ../psf/spectre.out -format sst2 -raw ../psf +aps  \
        +mt +lqtimeout 900 -maxw 5 -maxn 5 -env ade +adespetkn=adespe

Licensing Information:
[16:04:05.062338] Configured Lic search path (21.01-s002): 5280@license-srv.eecs.berkeley.edu:5280@bisc.EECS.Berkeley.EDU

Licensing Information:
[16:04:15.489473] Periodic Lic check successful

Loading /share/instsww/cadence/SPECTRE211/tools.lnx86/cmi/lib/64bit/5.0/libinfineon_sh.so ...
Loading /share/instsww/cadence/SPECTRE211/tools.lnx86/cmi/lib/64bit/5.0/libphilips_o_sh.so ...
Loading /share/instsww/cadence/SPECTRE211/tools.lnx86/cmi/lib/64bit/5.0/libphilips_sh.so ...
Loading /share/instsww/cadence/SPECTRE211/tools.lnx86/cmi/lib/64bit/5.0/libsparam_sh.so ...
Loading /share/instsww/cadence/SPECTRE211/tools.lnx86/cmi/lib/64bit/5.0/libstmodels_sh.so ...
Reading file:  /home/cc/ee140/sp25/staff/ee140-tab/cadence/cadence_finalproj/Sim/zz_EE140_Sp20_system/spectre/schematic/netlist/input.scs
Reading link:  /share/instsww/cadence/SPECTRE211
Reading file:  /share/instsww/cadence/SPECTRE.21.10.751/tools.lnx86/spectre/etc/configs/spectre.cfg
Reading file:  /usr/include/stdc-predef.h
Reading file:  /home/ff/ee140/fa19/xfab/XKIT/xt018/cadence/v8_0/spectre/v8_0_2/lp5mos/config.scs
Reading file:  /home/ff/ee140/fa19/xfab/XKIT/xt018/cadence/v8_0/spectre/v8_0_2/lp5mos/param.scs
Reading file:  /home/ff/ee140/fa19/xfab/XKIT/xt018/cadence/v8_0/spectre/v8_0_2/lp5mos/bip.scs
Reading file:  /home/ff/ee140/fa19/xfab/XKIT/xt018/cadence/v8_0/spectre/v8_0_2/lp5mos/models/bip/tm_bip.scs
Reading file:  /home/ff/ee140/fa19/xfab/XKIT/xt018/cadence/v8_0/spectre/v8_0_2/lp5mos/models/bip/qpva.scs
Reading file:  /home/ff/ee140/fa19/xfab/XKIT/xt018/cadence/v8_0/spectre/v8_0_2/lp5mos/models/bip/qpva_dbc.scs
Reading file:  /home/ff/ee140/fa19/xfab/XKIT/xt018/cadence/v8_0/spectre/v8_0_2/lp5mos/models/bip/qpvb.scs
Reading file:  /home/ff/ee140/fa19/xfab/XKIT/xt018/cadence/v8_0/spectre/v8_0_2/lp5mos/models/bip/qpvb_dbc.scs
Reading file:  /home/ff/ee140/fa19/xfab/XKIT/xt018/cadence/v8_0/spectre/v8_0_2/lp5mos/models/bip/qpvc.scs
Reading file:  /home/ff/ee140/fa19/xfab/XKIT/xt018/cadence/v8_0/spectre/v8_0_2/lp5mos/models/bip/qpvc_dbc.scs
Reading file:  /home/ff/ee140/fa19/xfab/XKIT/xt018/cadence/v8_0/spectre/v8_0_2/lp5mos/models/bip/qpva5.scs
Reading file:  /home/ff/ee140/fa19/xfab/XKIT/xt018/cadence/v8_0/spectre/v8_0_2/lp5mos/models/bip/qpva5_dbc.scs
Reading file:  /home/ff/ee140/fa19/xfab/XKIT/xt018/cadence/v8_0/spectre/v8_0_2/lp5mos/models/bip/qpvb5.scs
Reading file:  /home/ff/ee140/fa19/xfab/XKIT/xt018/cadence/v8_0/spectre/v8_0_2/lp5mos/models/bip/qpvb5_dbc.scs
Reading file:  /home/ff/ee140/fa19/xfab/XKIT/xt018/cadence/v8_0/spectre/v8_0_2/lp5mos/models/bip/qpvc5.scs
Reading file:  /home/ff/ee140/fa19/xfab/XKIT/xt018/cadence/v8_0/spectre/v8_0_2/lp5mos/models/bip/qpvc5_dbc.scs
Reading file:  /home/ff/ee140/fa19/xfab/XKIT/xt018/cadence/v8_0/spectre/v8_0_2/lp5mos/models/bip/qpve.scs
Reading file:  /home/ff/ee140/fa19/xfab/XKIT/xt018/cadence/v8_0/spectre/v8_0_2/lp5mos/models/bip/qpve_dbc.scs
Reading file:  /home/ff/ee140/fa19/xfab/XKIT/xt018/cadence/v8_0/spectre/v8_0_2/lp5mos/models/bip/qpvf.scs
Reading file:  /home/ff/ee140/fa19/xfab/XKIT/xt018/cadence/v8_0/spectre/v8_0_2/lp5mos/models/bip/qpvf_dbc.scs
Reading file:  /home/ff/ee140/fa19/xfab/XKIT/xt018/cadence/v8_0/spectre/v8_0_2/lp5mos/models/bip/qpvg.scs
Reading file:  /home/ff/ee140/fa19/xfab/XKIT/xt018/cadence/v8_0/spectre/v8_0_2/lp5mos/models/bip/qpvg_dbc.scs
Reading file:  /home/ff/ee140/fa19/xfab/XKIT/xt018/cadence/v8_0/spectre/v8_0_2/lp5mos/models/bip/qpve5.scs
Reading file:  /home/ff/ee140/fa19/xfab/XKIT/xt018/cadence/v8_0/spectre/v8_0_2/lp5mos/models/bip/qpve5_dbc.scs
Reading file:  /home/ff/ee140/fa19/xfab/XKIT/xt018/cadence/v8_0/spectre/v8_0_2/lp5mos/models/bip/qpvf5.scs
Reading file:  /home/ff/ee140/fa19/xfab/XKIT/xt018/cadence/v8_0/spectre/v8_0_2/lp5mos/models/bip/qpvf5_dbc.scs
Reading file:  /home/ff/ee140/fa19/xfab/XKIT/xt018/cadence/v8_0/spectre/v8_0_2/lp5mos/models/bip/qpvg5.scs
Reading file:  /home/ff/ee140/fa19/xfab/XKIT/xt018/cadence/v8_0/spectre/v8_0_2/lp5mos/models/bip/qpvg5_dbc.scs
Reading file:  /home/ff/ee140/fa19/xfab/XKIT/xt018/cadence/v8_0/spectre/v8_0_2/lp5mos/models/bip/qnv5.scs
Reading file:  /home/ff/ee140/fa19/xfab/XKIT/xt018/cadence/v8_0/spectre/v8_0_2/lp5mos/models/bip/qpv5.scs
Reading file:  /home/ff/ee140/fa19/xfab/XKIT/xt018/cadence/v8_0/spectre/v8_0_2/lp5mos/cap.scs
Reading file:  /home/ff/ee140/fa19/xfab/XKIT/xt018/cadence/v8_0/spectre/v8_0_2/lp5mos/models/cap/tm_cap.scs
Reading file:  /home/ff/ee140/fa19/xfab/XKIT/xt018/cadence/v8_0/spectre/v8_0_2/lp5mos/models/cap/cdmm4.scs
Reading file:  /home/ff/ee140/fa19/xfab/XKIT/xt018/cadence/v8_0/spectre/v8_0_2/lp5mos/models/cap/cdmm5.scs
Reading file:  /home/ff/ee140/fa19/xfab/XKIT/xt018/cadence/v8_0/spectre/v8_0_2/lp5mos/models/cap/cdmm4t.scs
Reading file:  /home/ff/ee140/fa19/xfab/XKIT/xt018/cadence/v8_0/spectre/v8_0_2/lp5mos/models/cap/cdmm5t.scs
Reading file:  /home/ff/ee140/fa19/xfab/XKIT/xt018/cadence/v8_0/spectre/v8_0_2/lp5mos/models/cap/ctmm5.scs
Reading file:  /home/ff/ee140/fa19/xfab/XKIT/xt018/cadence/v8_0/spectre/v8_0_2/lp5mos/models/cap/ctmm5t.scs
Reading file:  /home/ff/ee140/fa19/xfab/XKIT/xt018/cadence/v8_0/spectre/v8_0_2/lp5mos/models/cap/cmm3.scs
Reading file:  /home/ff/ee140/fa19/xfab/XKIT/xt018/cadence/v8_0/spectre/v8_0_2/lp5mos/models/cap/cmm4.scs
Reading file:  /home/ff/ee140/fa19/xfab/XKIT/xt018/cadence/v8_0/spectre/v8_0_2/lp5mos/models/cap/cmm5.scs
Reading file:  /home/ff/ee140/fa19/xfab/XKIT/xt018/cadence/v8_0/spectre/v8_0_2/lp5mos/models/cap/cmm3t.scs
Reading file:  /home/ff/ee140/fa19/xfab/XKIT/xt018/cadence/v8_0/spectre/v8_0_2/lp5mos/models/cap/cmm4t.scs
Reading file:  /home/ff/ee140/fa19/xfab/XKIT/xt018/cadence/v8_0/spectre/v8_0_2/lp5mos/models/cap/cmm5t.scs
Reading file:  /home/ff/ee140/fa19/xfab/XKIT/xt018/cadence/v8_0/spectre/v8_0_2/lp5mos/models/cap/cmm6t.scs
Reading file:  /home/ff/ee140/fa19/xfab/XKIT/xt018/cadence/v8_0/spectre/v8_0_2/lp5mos/models/cap/cmmh3.scs
Reading file:  /home/ff/ee140/fa19/xfab/XKIT/xt018/cadence/v8_0/spectre/v8_0_2/lp5mos/models/cap/cmmh4.scs
Reading file:  /home/ff/ee140/fa19/xfab/XKIT/xt018/cadence/v8_0/spectre/v8_0_2/lp5mos/models/cap/cmmh5.scs
Reading file:  /home/ff/ee140/fa19/xfab/XKIT/xt018/cadence/v8_0/spectre/v8_0_2/lp5mos/models/cap/cmmh3t.scs
Reading file:  /home/ff/ee140/fa19/xfab/XKIT/xt018/cadence/v8_0/spectre/v8_0_2/lp5mos/models/cap/cmmh4t.scs
Reading file:  /home/ff/ee140/fa19/xfab/XKIT/xt018/cadence/v8_0/spectre/v8_0_2/lp5mos/models/cap/cmmh5t.scs
Reading file:  /home/ff/ee140/fa19/xfab/XKIT/xt018/cadence/v8_0/spectre/v8_0_2/lp5mos/models/cap/cmmh6t.scs
Reading file:  /home/ff/ee140/fa19/xfab/XKIT/xt018/cadence/v8_0/spectre/v8_0_2/lp5mos/models/cap/cdmmh4.scs
Reading file:  /home/ff/ee140/fa19/xfab/XKIT/xt018/cadence/v8_0/spectre/v8_0_2/lp5mos/models/cap/cdmmh5.scs
Reading file:  /home/ff/ee140/fa19/xfab/XKIT/xt018/cadence/v8_0/spectre/v8_0_2/lp5mos/models/cap/cdmmh4t.scs
Reading file:  /home/ff/ee140/fa19/xfab/XKIT/xt018/cadence/v8_0/spectre/v8_0_2/lp5mos/models/cap/cdmmh5t.scs
Reading file:  /home/ff/ee140/fa19/xfab/XKIT/xt018/cadence/v8_0/spectre/v8_0_2/lp5mos/models/cap/ctmmh5t.scs
Reading file:  /home/ff/ee140/fa19/xfab/XKIT/xt018/cadence/v8_0/spectre/v8_0_2/lp5mos/models/cap/ctmmh5.scs
Reading file:  /home/ff/ee140/fa19/xfab/XKIT/xt018/cadence/v8_0/spectre/v8_0_2/lp5mos/models/cap/cmmh4l.scs
Reading file:  /home/ff/ee140/fa19/xfab/XKIT/xt018/cadence/v8_0/spectre/v8_0_2/lp5mos/models/cap/cmmh5l.scs
Reading file:  /home/ff/ee140/fa19/xfab/XKIT/xt018/cadence/v8_0/spectre/v8_0_2/lp5mos/models/cap/cmmh6l.scs
Reading file:  /home/ff/ee140/fa19/xfab/XKIT/xt018/cadence/v8_0/spectre/v8_0_2/lp5mos/models/cap/csandwt3.scs
Reading file:  /home/ff/ee140/fa19/xfab/XKIT/xt018/cadence/v8_0/spectre/v8_0_2/lp5mos/models/cap/csandwt4.scs
Reading file:  /home/ff/ee140/fa19/xfab/XKIT/xt018/cadence/v8_0/spectre/v8_0_2/lp5mos/models/cap/csandwt5.scs
Reading file:  /home/ff/ee140/fa19/xfab/XKIT/xt018/cadence/v8_0/spectre/v8_0_2/lp5mos/models/cap/cp1sub.scs
Reading file:  /home/ff/ee140/fa19/xfab/XKIT/xt018/cadence/v8_0/spectre/v8_0_2/lp5mos/models/cap/cp1suba.scs
Reading file:  /home/ff/ee140/fa19/xfab/XKIT/xt018/cadence/v8_0/spectre/v8_0_2/lp5mos/models/cap/cp1subp.scs
Reading file:  /home/ff/ee140/fa19/xfab/XKIT/xt018/cadence/v8_0/spectre/v8_0_2/lp5mos/models/cap/csf2p.scs
Reading file:  /home/ff/ee140/fa19/xfab/XKIT/xt018/cadence/v8_0/spectre/v8_0_2/lp5mos/models/cap/csf3p.scs
Reading file:  /home/ff/ee140/fa19/xfab/XKIT/xt018/cadence/v8_0/spectre/v8_0_2/lp5mos/models/cap/csf3.scs
Reading file:  /home/ff/ee140/fa19/xfab/XKIT/xt018/cadence/v8_0/spectre/v8_0_2/lp5mos/models/cap/csf4.scs
Reading file:  /home/ff/ee140/fa19/xfab/XKIT/xt018/cadence/v8_0/spectre/v8_0_2/lp5mos/models/cap/csf5.scs
Reading file:  /home/ff/ee140/fa19/xfab/XKIT/xt018/cadence/v8_0/spectre/v8_0_2/lp5mos/models/cap/csft4.scs
Reading file:  /home/ff/ee140/fa19/xfab/XKIT/xt018/cadence/v8_0/spectre/v8_0_2/lp5mos/models/cap/csft5.scs
Reading file:  /home/ff/ee140/fa19/xfab/XKIT/xt018/cadence/v8_0/spectre/v8_0_2/lp5mos/models/cap/csft6.scs
Reading file:  /home/ff/ee140/fa19/xfab/XKIT/xt018/cadence/v8_0/spectre/v8_0_2/lp5mos/models/cap/csf3a.scs
Reading file:  /home/ff/ee140/fa19/xfab/XKIT/xt018/cadence/v8_0/spectre/v8_0_2/lp5mos/models/cap/csf4a.scs
Reading file:  /home/ff/ee140/fa19/xfab/XKIT/xt018/cadence/v8_0/spectre/v8_0_2/lp5mos/models/cap/csf5a.scs
Reading file:  /home/ff/ee140/fa19/xfab/XKIT/xt018/cadence/v8_0/spectre/v8_0_2/lp5mos/models/cap/csft4a.scs
Reading file:  /home/ff/ee140/fa19/xfab/XKIT/xt018/cadence/v8_0/spectre/v8_0_2/lp5mos/models/cap/csft5a.scs
Reading file:  /home/ff/ee140/fa19/xfab/XKIT/xt018/cadence/v8_0/spectre/v8_0_2/lp5mos/models/cap/csft6a.scs
Reading file:  /home/ff/ee140/fa19/xfab/XKIT/xt018/cadence/v8_0/spectre/v8_0_2/lp5mos/models/cap/p_cap.scs
Reading file:  /home/ff/ee140/fa19/xfab/XKIT/xt018/cadence/v8_0/spectre/v8_0_2/lp5mos/models/cap/mosvc.scs
Reading file:  /home/ff/ee140/fa19/xfab/XKIT/xt018/cadence/v8_0/spectre/v8_0_2/lp5mos/models/cap/mosvc_pmos.scs
Reading file:  /home/ff/ee140/fa19/xfab/XKIT/xt018/cadence/v8_0/spectre/v8_0_2/lp5mos/models/cap/mosvcti.scs
Reading file:  /home/ff/ee140/fa19/xfab/XKIT/xt018/cadence/v8_0/spectre/v8_0_2/lp5mos/models/cap/mosvcti_nmos.scs
Reading file:  /home/ff/ee140/fa19/xfab/XKIT/xt018/cadence/v8_0/spectre/v8_0_2/lp5mos/models/cap/mosvc5.scs
Reading file:  /home/ff/ee140/fa19/xfab/XKIT/xt018/cadence/v8_0/spectre/v8_0_2/lp5mos/models/cap/mosvc5_pmos.scs
Reading file:  /home/ff/ee140/fa19/xfab/XKIT/xt018/cadence/v8_0/spectre/v8_0_2/lp5mos/models/cap/mosvc5ti.scs
Reading file:  /home/ff/ee140/fa19/xfab/XKIT/xt018/cadence/v8_0/spectre/v8_0_2/lp5mos/models/cap/mosvc5ti_nmos.scs
Reading file:  /home/ff/ee140/fa19/xfab/XKIT/xt018/cadence/v8_0/spectre/v8_0_2/lp5mos/models/cap/cif3.scs
Reading file:  /home/ff/ee140/fa19/xfab/XKIT/xt018/cadence/v8_0/spectre/v8_0_2/lp5mos/models/cap/cif4.scs
Reading file:  /home/ff/ee140/fa19/xfab/XKIT/xt018/cadence/v8_0/spectre/v8_0_2/lp5mos/models/cap/cif5.scs
Reading file:  /home/ff/ee140/fa19/xfab/XKIT/xt018/cadence/v8_0/spectre/v8_0_2/lp5mos/models/cap/tag_25v.scs
Reading file:  /home/ff/ee140/fa19/xfab/XKIT/xt018/cadence/v8_0/spectre/v8_0_2/lp5mos/models/cap/tag_60v.scs
Reading file:  /home/ff/ee140/fa19/xfab/XKIT/xt018/cadence/v8_0/spectre/v8_0_2/lp5mos/models/cap/tag_100v.scs
Reading file:  /home/ff/ee140/fa19/xfab/XKIT/xt018/cadence/v8_0/spectre/v8_0_2/lp5mos/models/cap/tag_200v.scs
Reading file:  /home/ff/ee140/fa19/xfab/XKIT/xt018/cadence/v8_0/spectre/v8_0_2/lp5mos/models/cap/tag_m25v.scs
Reading file:  /home/ff/ee140/fa19/xfab/XKIT/xt018/cadence/v8_0/spectre/v8_0_2/lp5mos/models/cap/tag_m60v.scs
Reading file:  /home/ff/ee140/fa19/xfab/XKIT/xt018/cadence/v8_0/spectre/v8_0_2/lp5mos/models/cap/tag_m100v.scs
Reading file:  /home/ff/ee140/fa19/xfab/XKIT/xt018/cadence/v8_0/spectre/v8_0_2/lp5mos/models/cap/tag_m200v.scs
Reading file:  /home/ff/ee140/fa19/xfab/XKIT/xt018/cadence/v8_0/spectre/v8_0_2/lp5mos/dio.scs
Reading file:  /home/ff/ee140/fa19/xfab/XKIT/xt018/cadence/v8_0/spectre/v8_0_2/lp5mos/models/dio/tm_dio.scs
Reading file:  /home/ff/ee140/fa19/xfab/XKIT/xt018/cadence/v8_0/spectre/v8_0_2/lp5mos/models/dio/dn.scs
Reading file:  /home/ff/ee140/fa19/xfab/XKIT/xt018/cadence/v8_0/spectre/v8_0_2/lp5mos/models/dio/dp.scs
Reading file:  /home/ff/ee140/fa19/xfab/XKIT/xt018/cadence/v8_0/spectre/v8_0_2/lp5mos/models/dio/dnw.scs
Reading file:  /home/ff/ee140/fa19/xfab/XKIT/xt018/cadence/v8_0/spectre/v8_0_2/lp5mos/models/dio/dn5.scs
Reading file:  /home/ff/ee140/fa19/xfab/XKIT/xt018/cadence/v8_0/spectre/v8_0_2/lp5mos/models/dio/dp5.scs
Reading file:  /home/ff/ee140/fa19/xfab/XKIT/xt018/cadence/v8_0/spectre/v8_0_2/lp5mos/models/dio/dnw5.scs
Reading file:  /home/ff/ee140/fa19/xfab/XKIT/xt018/cadence/v8_0/spectre/v8_0_2/lp5mos/models/dio/dhw2a.scs
Reading file:  /home/ff/ee140/fa19/xfab/XKIT/xt018/cadence/v8_0/spectre/v8_0_2/lp5mos/models/dio/dhw2.scs
Reading file:  /home/ff/ee140/fa19/xfab/XKIT/xt018/cadence/v8_0/spectre/v8_0_2/lp5mos/models/dio/dhw3.scs
Reading file:  /home/ff/ee140/fa19/xfab/XKIT/xt018/cadence/v8_0/spectre/v8_0_2/lp5mos/models/dio/dfwdpa.scs
Reading file:  /home/ff/ee140/fa19/xfab/XKIT/xt018/cadence/v8_0/spectre/v8_0_2/lp5mos/models/dio/dfwnsj1_7.scs
Reading file:  /home/ff/ee140/fa19/xfab/XKIT/xt018/cadence/v8_0/spectre/v8_0_2/lp5mos/models/dio/dfwnsj1_10.scs
Reading file:  /home/ff/ee140/fa19/xfab/XKIT/xt018/cadence/v8_0/spectre/v8_0_2/lp5mos/models/dio/dfwnsj1_16c.scs
Reading file:  /home/ff/ee140/fa19/xfab/XKIT/xt018/cadence/v8_0/spectre/v8_0_2/lp5mos/models/dio/dfwpsj1_7.scs
Reading file:  /home/ff/ee140/fa19/xfab/XKIT/xt018/cadence/v8_0/spectre/v8_0_2/lp5mos/models/dio/dfwpsj1_10.scs
Reading file:  /home/ff/ee140/fa19/xfab/XKIT/xt018/cadence/v8_0/spectre/v8_0_2/lp5mos/models/dio/dfwpsj1_16c.scs
Reading file:  /home/ff/ee140/fa19/xfab/XKIT/xt018/cadence/v8_0/spectre/v8_0_2/lp5mos/models/dio/dpp6.scs
Reading file:  /home/ff/ee140/fa19/xfab/XKIT/xt018/cadence/v8_0/spectre/v8_0_2/lp5mos/models/dio/dpp7.scs
Reading file:  /home/ff/ee140/fa19/xfab/XKIT/xt018/cadence/v8_0/spectre/v8_0_2/lp5mos/models/dio/dnp7.scs
Reading file:  /home/ff/ee140/fa19/xfab/XKIT/xt018/cadence/v8_0/spectre/v8_0_2/lp5mos/models/dio/ds5.scs
Reading file:  /home/ff/ee140/fa19/xfab/XKIT/xt018/cadence/v8_0/spectre/v8_0_2/lp5mos/models/dio/ds5a.scs
Reading file:  /home/ff/ee140/fa19/xfab/XKIT/xt018/cadence/v8_0/spectre/v8_0_2/lp5mos/models/dio/dfwdn5.scs
Reading file:  /home/ff/ee140/fa19/xfab/XKIT/xt018/cadence/v8_0/spectre/v8_0_2/lp5mos/models/dio/dfwdnt.scs
Reading file:  /home/ff/ee140/fa19/xfab/XKIT/xt018/cadence/v8_0/spectre/v8_0_2/lp5mos/models/dio/dfwdnu.scs
Reading file:  /home/ff/ee140/fa19/xfab/XKIT/xt018/cadence/v8_0/spectre/v8_0_2/lp5mos/models/dio/dfwdpta.scs
Reading file:  /home/ff/ee140/fa19/xfab/XKIT/xt018/cadence/v8_0/spectre/v8_0_2/lp5mos/models/dio/dfwdptb.scs
Reading file:  /home/ff/ee140/fa19/xfab/XKIT/xt018/cadence/v8_0/spectre/v8_0_2/lp5mos/models/dio/dfwdpu.scs
Reading file:  /home/ff/ee140/fa19/xfab/XKIT/xt018/cadence/v8_0/spectre/v8_0_2/lp5mos/models/dio/dnpa.scs
Reading file:  /home/ff/ee140/fa19/xfab/XKIT/xt018/cadence/v8_0/spectre/v8_0_2/lp5mos/models/dio/dnpati.scs
Reading file:  /home/ff/ee140/fa19/xfab/XKIT/xt018/cadence/v8_0/spectre/v8_0_2/lp5mos/models/dio/dza.scs
Reading file:  /home/ff/ee140/fa19/xfab/XKIT/xt018/cadence/v8_0/spectre/v8_0_2/lp5mos/models/dio/dzati.scs
Reading file:  /home/ff/ee140/fa19/xfab/XKIT/xt018/cadence/v8_0/spectre/v8_0_2/lp5mos/models/dio/dzbti.scs
Reading file:  /home/ff/ee140/fa19/xfab/XKIT/xt018/cadence/v8_0/spectre/v8_0_2/lp5mos/models/dio/drxw.scs
Reading file:  /home/ff/ee140/fa19/xfab/XKIT/xt018/cadence/v8_0/spectre/v8_0_2/lp5mos/models/dio/dnw5mva.scs
Reading file:  /home/ff/ee140/fa19/xfab/XKIT/xt018/cadence/v8_0/spectre/v8_0_2/lp5mos/models/dio/dnn.scs
Reading file:  /home/ff/ee140/fa19/xfab/XKIT/xt018/cadence/v8_0/spectre/v8_0_2/lp5mos/models/dio/dnn5.scs
Reading file:  /home/ff/ee140/fa19/xfab/XKIT/xt018/cadence/v8_0/spectre/v8_0_2/lp5mos/models/dio/dfwdnha.scs
Reading file:  /home/ff/ee140/fa19/xfab/XKIT/xt018/cadence/v8_0/spectre/v8_0_2/lp5mos/models/dio/dfwdnhb.scs
Reading file:  /home/ff/ee140/fa19/xfab/XKIT/xt018/cadence/v8_0/spectre/v8_0_2/lp5mos/models/dio/dfwdnhc.scs
Reading file:  /home/ff/ee140/fa19/xfab/XKIT/xt018/cadence/v8_0/spectre/v8_0_2/lp5mos/models/dio/dfwdnhd.scs
Reading file:  /home/ff/ee140/fa19/xfab/XKIT/xt018/cadence/v8_0/spectre/v8_0_2/lp5mos/models/dio/dfwdnhe.scs
Reading file:  /home/ff/ee140/fa19/xfab/XKIT/xt018/cadence/v8_0/spectre/v8_0_2/lp5mos/models/dio/dfwdnhf.scs
Reading file:  /home/ff/ee140/fa19/xfab/XKIT/xt018/cadence/v8_0/spectre/v8_0_2/lp5mos/models/dio/dfwdpha.scs
Reading file:  /home/ff/ee140/fa19/xfab/XKIT/xt018/cadence/v8_0/spectre/v8_0_2/lp5mos/models/dio/dfwdphb.scs
Reading file:  /home/ff/ee140/fa19/xfab/XKIT/xt018/cadence/v8_0/spectre/v8_0_2/lp5mos/models/dio/dfwdphc.scs
Reading file:  /home/ff/ee140/fa19/xfab/XKIT/xt018/cadence/v8_0/spectre/v8_0_2/lp5mos/models/dio/dfwdphd.scs
Reading file:  /home/ff/ee140/fa19/xfab/XKIT/xt018/cadence/v8_0/spectre/v8_0_2/lp5mos/models/dio/dfwdphe.scs
Reading file:  /home/ff/ee140/fa19/xfab/XKIT/xt018/cadence/v8_0/spectre/v8_0_2/lp5mos/models/dio/dfwdphf.scs
Reading file:  /home/ff/ee140/fa19/xfab/XKIT/xt018/cadence/v8_0/spectre/v8_0_2/lp5mos/models/dio/dfwdpb.scs
Reading file:  /home/ff/ee140/fa19/xfab/XKIT/xt018/cadence/v8_0/spectre/v8_0_2/lp5mos/models/dio/dfwdpc.scs
Reading file:  /home/ff/ee140/fa19/xfab/XKIT/xt018/cadence/v8_0/spectre/v8_0_2/lp5mos/models/dio/dfwdpd.scs
Reading file:  /home/ff/ee140/fa19/xfab/XKIT/xt018/cadence/v8_0/spectre/v8_0_2/lp5mos/models/dio/dfwdpe.scs
Reading file:  /home/ff/ee140/fa19/xfab/XKIT/xt018/cadence/v8_0/spectre/v8_0_2/lp5mos/models/dio/dfwdpf.scs
Reading file:  /home/ff/ee140/fa19/xfab/XKIT/xt018/cadence/v8_0/spectre/v8_0_2/lp5mos/mos.scs
Reading file:  /home/ff/ee140/fa19/xfab/XKIT/xt018/cadence/v8_0/spectre/v8_0_2/lp5mos/models/mos/tm_mos.scs
Reading file:  /home/ff/ee140/fa19/xfab/XKIT/xt018/cadence/v8_0/spectre/v8_0_2/lp5mos/models/mos/nn.scs
Reading file:  /home/ff/ee140/fa19/xfab/XKIT/xt018/cadence/v8_0/spectre/v8_0_2/lp5mos/models/mos/nn_jf.scs
Reading file:  /home/ff/ee140/fa19/xfab/XKIT/xt018/cadence/v8_0/spectre/v8_0_2/lp5mos/models/mos/ne.scs
Reading file:  /home/ff/ee140/fa19/xfab/XKIT/xt018/cadence/v8_0/spectre/v8_0_2/lp5mos/models/mos/pe.scs
Reading file:  /home/ff/ee140/fa19/xfab/XKIT/xt018/cadence/v8_0/spectre/v8_0_2/lp5mos/models/mos/ne5.scs
Reading file:  /home/ff/ee140/fa19/xfab/XKIT/xt018/cadence/v8_0/spectre/v8_0_2/lp5mos/models/mos/pe5.scs
Reading file:  /home/ff/ee140/fa19/xfab/XKIT/xt018/cadence/v8_0/spectre/v8_0_2/lp5mos/models/mos/nmva.scs
Reading file:  /home/ff/ee140/fa19/xfab/XKIT/xt018/cadence/v8_0/spectre/v8_0_2/lp5mos/models/mos/pmva.scs
Reading file:  /home/ff/ee140/fa19/xfab/XKIT/xt018/cadence/v8_0/spectre/v8_0_2/lp5mos/models/mos/peti.scs
Reading file:  /home/ff/ee140/fa19/xfab/XKIT/xt018/cadence/v8_0/spectre/v8_0_2/lp5mos/models/mos/pe5ti.scs
Reading file:  /home/ff/ee140/fa19/xfab/XKIT/xt018/cadence/v8_0/spectre/v8_0_2/lp5mos/models/mos/nhsj1_7.scs
Reading file:  /home/ff/ee140/fa19/xfab/XKIT/xt018/cadence/v8_0/spectre/v8_0_2/lp5mos/models/mos/nhsj1_10.scs
Reading file:  /home/ff/ee140/fa19/xfab/XKIT/xt018/cadence/v8_0/spectre/v8_0_2/lp5mos/models/mos/nhsj1_16c.scs
Reading file:  /home/ff/ee140/fa19/xfab/XKIT/xt018/cadence/v8_0/spectre/v8_0_2/lp5mos/models/mos/phsj1_7.scs
Reading file:  /home/ff/ee140/fa19/xfab/XKIT/xt018/cadence/v8_0/spectre/v8_0_2/lp5mos/models/mos/phsj1_10.scs
Reading file:  /home/ff/ee140/fa19/xfab/XKIT/xt018/cadence/v8_0/spectre/v8_0_2/lp5mos/models/mos/phsj1_16c.scs
Reading file:  /home/ff/ee140/fa19/xfab/XKIT/xt018/cadence/v8_0/spectre/v8_0_2/lp5mos/models/mos/nn5.scs
Reading file:  /home/ff/ee140/fa19/xfab/XKIT/xt018/cadence/v8_0/spectre/v8_0_2/lp5mos/models/mos/nn5_jf.scs
Reading file:  /home/ff/ee140/fa19/xfab/XKIT/xt018/cadence/v8_0/spectre/v8_0_2/lp5mos/models/mos/nhvta.scs
Reading file:  /home/ff/ee140/fa19/xfab/XKIT/xt018/cadence/v8_0/spectre/v8_0_2/lp5mos/models/mos/nhvtb.scs
Reading file:  /home/ff/ee140/fa19/xfab/XKIT/xt018/cadence/v8_0/spectre/v8_0_2/lp5mos/models/mos/phvta.scs
Reading file:  /home/ff/ee140/fa19/xfab/XKIT/xt018/cadence/v8_0/spectre/v8_0_2/lp5mos/models/mos/phvtb.scs
Reading file:  /home/ff/ee140/fa19/xfab/XKIT/xt018/cadence/v8_0/spectre/v8_0_2/lp5mos/models/mos/nhvu.scs
Reading file:  /home/ff/ee140/fa19/xfab/XKIT/xt018/cadence/v8_0/spectre/v8_0_2/lp5mos/models/mos/phvu.scs
Reading file:  /home/ff/ee140/fa19/xfab/XKIT/xt018/cadence/v8_0/spectre/v8_0_2/lp5mos/models/mos/nel.scs
Reading file:  /home/ff/ee140/fa19/xfab/XKIT/xt018/cadence/v8_0/spectre/v8_0_2/lp5mos/models/mos/pel.scs
Reading file:  /home/ff/ee140/fa19/xfab/XKIT/xt018/cadence/v8_0/spectre/v8_0_2/lp5mos/models/mos/ndhvt.scs
Reading file:  /home/ff/ee140/fa19/xfab/XKIT/xt018/cadence/v8_0/spectre/v8_0_2/lp5mos/models/mos/pe_5.scs
Reading file:  /home/ff/ee140/fa19/xfab/XKIT/xt018/cadence/v8_0/spectre/v8_0_2/lp5mos/models/mos/pel_5.scs
Reading file:  /home/ff/ee140/fa19/xfab/XKIT/xt018/cadence/v8_0/spectre/v8_0_2/lp5mos/models/mos/pe5_5.scs
Reading file:  /home/ff/ee140/fa19/xfab/XKIT/xt018/cadence/v8_0/spectre/v8_0_2/lp5mos/models/mos/nisj1_16.scs
Reading file:  /home/ff/ee140/fa19/xfab/XKIT/xt018/cadence/v8_0/spectre/v8_0_2/lp5mos/models/mos/nisj1_16_m1.scs
Reading file:  /home/ff/ee140/fa19/xfab/XKIT/xt018/cadence/v8_0/spectre/v8_0_2/lp5mos/models/mos/nisj1_16_q1.scs
Reading file:  /home/ff/ee140/fa19/xfab/XKIT/xt018/cadence/v8_0/spectre/v8_0_2/lp5mos/models/mos/ndhvta.scs
Reading file:  /home/ff/ee140/fa19/xfab/XKIT/xt018/cadence/v8_0/spectre/v8_0_2/lp5mos/models/mos/nd5.scs
Reading file:  /home/ff/ee140/fa19/xfab/XKIT/xt018/cadence/v8_0/spectre/v8_0_2/lp5mos/models/mos/nd5_mos1.scs
Reading file:  /home/ff/ee140/fa19/xfab/XKIT/xt018/cadence/v8_0/spectre/v8_0_2/lp5mos/models/mos/nd5_mos2.scs
Reading file:  /home/ff/ee140/fa19/xfab/XKIT/xt018/cadence/v8_0/spectre/v8_0_2/lp5mos/models/mos/nhvra.scs
Reading file:  /home/ff/ee140/fa19/xfab/XKIT/xt018/cadence/v8_0/spectre/v8_0_2/lp5mos/models/mos/nhvrb.scs
Reading file:  /home/ff/ee140/fa19/xfab/XKIT/xt018/cadence/v8_0/spectre/v8_0_2/lp5mos/models/mos/nhvrc.scs
Reading file:  /home/ff/ee140/fa19/xfab/XKIT/xt018/cadence/v8_0/spectre/v8_0_2/lp5mos/models/mos/nhvrd.scs
Reading file:  /home/ff/ee140/fa19/xfab/XKIT/xt018/cadence/v8_0/spectre/v8_0_2/lp5mos/models/mos/nhvre.scs
Reading file:  /home/ff/ee140/fa19/xfab/XKIT/xt018/cadence/v8_0/spectre/v8_0_2/lp5mos/models/mos/nhvrf.scs
Reading file:  /home/ff/ee140/fa19/xfab/XKIT/xt018/cadence/v8_0/spectre/v8_0_2/lp5mos/models/mos/phvra.scs
Reading file:  /home/ff/ee140/fa19/xfab/XKIT/xt018/cadence/v8_0/spectre/v8_0_2/lp5mos/models/mos/phvrb.scs
Reading file:  /home/ff/ee140/fa19/xfab/XKIT/xt018/cadence/v8_0/spectre/v8_0_2/lp5mos/models/mos/phvrc.scs
Reading file:  /home/ff/ee140/fa19/xfab/XKIT/xt018/cadence/v8_0/spectre/v8_0_2/lp5mos/models/mos/phvrd.scs
Reading file:  /home/ff/ee140/fa19/xfab/XKIT/xt018/cadence/v8_0/spectre/v8_0_2/lp5mos/models/mos/phvre.scs
Reading file:  /home/ff/ee140/fa19/xfab/XKIT/xt018/cadence/v8_0/spectre/v8_0_2/lp5mos/models/mos/phvrf.scs
Reading file:  /home/ff/ee140/fa19/xfab/XKIT/xt018/cadence/v8_0/spectre/v8_0_2/lp5mos/models/mos/pmvb.scs
Reading file:  /home/ff/ee140/fa19/xfab/XKIT/xt018/cadence/v8_0/spectre/v8_0_2/lp5mos/models/mos/pmvc.scs
Reading file:  /home/ff/ee140/fa19/xfab/XKIT/xt018/cadence/v8_0/spectre/v8_0_2/lp5mos/models/mos/pmvd.scs
Reading file:  /home/ff/ee140/fa19/xfab/XKIT/xt018/cadence/v8_0/spectre/v8_0_2/lp5mos/models/mos/pmve.scs
Reading file:  /home/ff/ee140/fa19/xfab/XKIT/xt018/cadence/v8_0/spectre/v8_0_2/lp5mos/models/mos/pmvf.scs
Reading file:  /home/ff/ee140/fa19/xfab/XKIT/xt018/cadence/v8_0/spectre/v8_0_2/lp5mos/models/mos/ndhvrd.scs
Reading file:  /home/ff/ee140/fa19/xfab/XKIT/xt018/cadence/v8_0/spectre/v8_0_2/lp5mos/models/mos/ndhvrf.scs
Reading file:  /home/ff/ee140/fa19/xfab/XKIT/xt018/cadence/v8_0/spectre/v8_0_2/lp5mos/res.scs
Reading file:  /home/ff/ee140/fa19/xfab/XKIT/xt018/cadence/v8_0/spectre/v8_0_2/lp5mos/models/res/tm_res.scs
Reading file:  /home/ff/ee140/fa19/xfab/XKIT/xt018/cadence/v8_0/spectre/v8_0_2/lp5mos/models/res/rnw.scs
Reading file:  /home/ff/ee140/fa19/xfab/XKIT/xt018/cadence/v8_0/spectre/v8_0_2/lp5mos/models/res/rdn.scs
Reading file:  /home/ff/ee140/fa19/xfab/XKIT/xt018/cadence/v8_0/spectre/v8_0_2/lp5mos/models/res/rdp.scs
Reading file:  /home/ff/ee140/fa19/xfab/XKIT/xt018/cadence/v8_0/spectre/v8_0_2/lp5mos/models/res/rnw5.scs
Reading file:  /home/ff/ee140/fa19/xfab/XKIT/xt018/cadence/v8_0/spectre/v8_0_2/lp5mos/models/res/rdn5.scs
Reading file:  /home/ff/ee140/fa19/xfab/XKIT/xt018/cadence/v8_0/spectre/v8_0_2/lp5mos/models/res/rdp5.scs
Reading file:  /home/ff/ee140/fa19/xfab/XKIT/xt018/cadence/v8_0/spectre/v8_0_2/lp5mos/models/res/rnp1.scs
Reading file:  /home/ff/ee140/fa19/xfab/XKIT/xt018/cadence/v8_0/spectre/v8_0_2/lp5mos/models/res/rnp1_3.scs
Reading file:  /home/ff/ee140/fa19/xfab/XKIT/xt018/cadence/v8_0/spectre/v8_0_2/lp5mos/models/res/rpp1.scs
Reading file:  /home/ff/ee140/fa19/xfab/XKIT/xt018/cadence/v8_0/spectre/v8_0_2/lp5mos/models/res/rpp1_3.scs
Reading file:  /home/ff/ee140/fa19/xfab/XKIT/xt018/cadence/v8_0/spectre/v8_0_2/lp5mos/models/res/rpp1s.scs
Reading file:  /home/ff/ee140/fa19/xfab/XKIT/xt018/cadence/v8_0/spectre/v8_0_2/lp5mos/models/res/rpp1s_3.scs
Reading file:  /home/ff/ee140/fa19/xfab/XKIT/xt018/cadence/v8_0/spectre/v8_0_2/lp5mos/models/res/rnp1h.scs
Reading file:  /home/ff/ee140/fa19/xfab/XKIT/xt018/cadence/v8_0/spectre/v8_0_2/lp5mos/models/res/rnp1h_3.scs
Reading file:  /home/ff/ee140/fa19/xfab/XKIT/xt018/cadence/v8_0/spectre/v8_0_2/lp5mos/models/res/rpp1k1.scs
Reading file:  /home/ff/ee140/fa19/xfab/XKIT/xt018/cadence/v8_0/spectre/v8_0_2/lp5mos/models/res/rpp1k1_3.scs
Reading file:  /home/ff/ee140/fa19/xfab/XKIT/xt018/cadence/v8_0/spectre/v8_0_2/lp5mos/models/res/rpp1k1a.scs
Reading file:  /home/ff/ee140/fa19/xfab/XKIT/xt018/cadence/v8_0/spectre/v8_0_2/lp5mos/models/res/rpp1k1a_3.scs
Reading file:  /home/ff/ee140/fa19/xfab/XKIT/xt018/cadence/v8_0/spectre/v8_0_2/lp5mos/models/res/rm1.scs
Reading file:  /home/ff/ee140/fa19/xfab/XKIT/xt018/cadence/v8_0/spectre/v8_0_2/lp5mos/models/res/rm2.scs
Reading file:  /home/ff/ee140/fa19/xfab/XKIT/xt018/cadence/v8_0/spectre/v8_0_2/lp5mos/models/res/rm3.scs
Reading file:  /home/ff/ee140/fa19/xfab/XKIT/xt018/cadence/v8_0/spectre/v8_0_2/lp5mos/models/res/rm4.scs
Reading file:  /home/ff/ee140/fa19/xfab/XKIT/xt018/cadence/v8_0/spectre/v8_0_2/lp5mos/models/res/rm5.scs
Reading file:  /home/ff/ee140/fa19/xfab/XKIT/xt018/cadence/v8_0/spectre/v8_0_2/lp5mos/models/res/rmtp.scs
Reading file:  /home/ff/ee140/fa19/xfab/XKIT/xt018/cadence/v8_0/spectre/v8_0_2/lp5mos/models/res/rmtpl.scs
Reading file:  /home/ff/ee140/fa19/xfab/XKIT/xt018/cadence/v8_0/spectre/v8_0_2/lp5mos/models/res/rmrdl.scs
Reading file:  /home/ff/ee140/fa19/xfab/XKIT/xt018/cadence/v8_0/spectre/v8_0_2/lp5mos/models/res/rctdn.scs
Reading file:  /home/ff/ee140/fa19/xfab/XKIT/xt018/cadence/v8_0/spectre/v8_0_2/lp5mos/models/res/rsildn.scs
Reading file:  /home/ff/ee140/fa19/xfab/XKIT/xt018/cadence/v8_0/spectre/v8_0_2/lp5mos/models/res/rctdp.scs
Reading file:  /home/ff/ee140/fa19/xfab/XKIT/xt018/cadence/v8_0/spectre/v8_0_2/lp5mos/models/res/rsildp.scs
Reading file:  /home/ff/ee140/fa19/xfab/XKIT/xt018/cadence/v8_0/spectre/v8_0_2/lp5mos/models/res/rctp1.scs
Reading file:  /home/ff/ee140/fa19/xfab/XKIT/xt018/cadence/v8_0/spectre/v8_0_2/lp5mos/models/res/rsilnp1.scs
Reading file:  /home/ff/ee140/fa19/xfab/XKIT/xt018/cadence/v8_0/spectre/v8_0_2/lp5mos/models/res/rsilpp1.scs
Reading file:  /home/ff/ee140/fa19/xfab/XKIT/xt018/cadence/v8_0/spectre/v8_0_2/lp5mos/models/res/pfuse.scs
Reading file:  /home/ff/ee140/fa19/xfab/XKIT/xt018/cadence/v8_0/spectre/v8_0_2/lp5mos/models/res/rnw_scr.scs
Reading file:  /home/ff/ee140/fa19/xfab/XKIT/xt018/cadence/v8_0/spectre/v8_0_2/lp5mos/models/res/rnw5_scr.scs
Reading file:  /home/ff/ee140/fa19/xfab/XKIT/xt018/cadence/v8_0/spectre/v8_0_2/lp5mos/models/res/rsbdn.scs
Reading file:  /home/ff/ee140/fa19/xfab/XKIT/xt018/cadence/v8_0/spectre/v8_0_2/lp5mos/models/res/rsbdp.scs
Reading file:  /home/ff/ee140/fa19/xfab/XKIT/xt018/cadence/v8_0/spectre/v8_0_2/lp5mos/models/res/rsbnp1.scs
Reading file:  /home/ff/ee140/fa19/xfab/XKIT/xt018/cadence/v8_0/spectre/v8_0_2/lp5mos/models/res/rsbpp1.scs
Reading file:  /home/ff/ee140/fa19/xfab/XKIT/xt018/cadence/v8_0/spectre/v8_0_2/lp5mos/models/res/rsbpp1k1.scs
Reading file:  /home/ff/ee140/fa19/xfab/XKIT/xt018/cadence/v8_0/spectre/v8_0_2/lp5mos/models/res/rsbdn5.scs
Reading file:  /home/ff/ee140/fa19/xfab/XKIT/xt018/cadence/v8_0/spectre/v8_0_2/lp5mos/models/res/rsbdp5.scs
Reading file:  /home/ff/ee140/fa19/xfab/XKIT/xt018/cadence/v8_0/spectre/v8_0_2/lp5mos/models/res/p_rm1.scs
Reading file:  /home/ff/ee140/fa19/xfab/XKIT/xt018/cadence/v8_0/spectre/v8_0_2/lp5mos/models/res/p_rm2.scs
Reading file:  /home/ff/ee140/fa19/xfab/XKIT/xt018/cadence/v8_0/spectre/v8_0_2/lp5mos/models/res/p_rm3.scs
Reading file:  /home/ff/ee140/fa19/xfab/XKIT/xt018/cadence/v8_0/spectre/v8_0_2/lp5mos/models/res/p_rm4.scs
Reading file:  /home/ff/ee140/fa19/xfab/XKIT/xt018/cadence/v8_0/spectre/v8_0_2/lp5mos/models/res/p_rm5.scs
Reading file:  /home/ff/ee140/fa19/xfab/XKIT/xt018/cadence/v8_0/spectre/v8_0_2/lp5mos/models/res/p_rmtp.scs
Reading file:  /home/ff/ee140/fa19/xfab/XKIT/xt018/cadence/v8_0/spectre/v8_0_2/lp5mos/models/res/p_rmtpl.scs
Reading file:  /home/ff/ee140/fa19/xfab/XKIT/xt018/cadence/v8_0/spectre/v8_0_2/lp5mos/models/res/p_rvia1.scs
Reading file:  /home/ff/ee140/fa19/xfab/XKIT/xt018/cadence/v8_0/spectre/v8_0_2/lp5mos/models/res/p_rvia2.scs
Reading file:  /home/ff/ee140/fa19/xfab/XKIT/xt018/cadence/v8_0/spectre/v8_0_2/lp5mos/models/res/p_rvia3.scs
Reading file:  /home/ff/ee140/fa19/xfab/XKIT/xt018/cadence/v8_0/spectre/v8_0_2/lp5mos/models/res/p_rvia4.scs
Reading file:  /home/ff/ee140/fa19/xfab/XKIT/xt018/cadence/v8_0/spectre/v8_0_2/lp5mos/models/res/p_rviatp.scs
Reading file:  /home/ff/ee140/fa19/xfab/XKIT/xt018/cadence/v8_0/spectre/v8_0_2/lp5mos/models/res/p_rviatpl.scs
Reading file:  /home/ff/ee140/fa19/xfab/XKIT/xt018/cadence/v8_0/spectre/v8_0_2/lp5mos/models/res/p_rctdn.scs
Reading file:  /home/ff/ee140/fa19/xfab/XKIT/xt018/cadence/v8_0/spectre/v8_0_2/lp5mos/models/res/p_rctdp.scs
Reading file:  /home/ff/ee140/fa19/xfab/XKIT/xt018/cadence/v8_0/spectre/v8_0_2/lp5mos/models/res/p_rctp1.scs
Reading file:  /home/ff/ee140/fa19/xfab/XKIT/xt018/cadence/v8_0/spectre/v8_0_2/lp5mos/models/res/p_rp1s.scs
Reading file:  /home/ff/ee140/fa19/xfab/XKIT/xt018/cadence/v8_0/spectre/v8_0_2/lp5mos/models/res/rxw2ti.scs
Reading file:  /home/ff/ee140/fa19/xfab/XKIT/xt018/cadence/v8_0/spectre/v8_0_2/lp5mos/models/res/rdn5_dpc.scs
Reading file:  /home/ff/ee140/fa19/xfab/XKIT/xt018/cadence/v8_0/spectre/v8_0_2/lp5mos/models/res/rdn5_pw4.scs
Reading file:  /home/cc/ee140/sp25/staff/ee140-tab/cadence/cadence_finalproj/sky130_release_0.0.4/models/sky130.lib.spice
Reading file:  /home/cc/ee140/sp25/staff/ee140-tab/cadence/cadence_finalproj/sky130_release_0.0.4/cells/nfet_01v8/sky130_fd_pr__nfet_01v8__tt.corner.spice
Reading file:  /home/cc/ee140/sp25/staff/ee140-tab/cadence/cadence_finalproj/sky130_release_0.0.4/cells/nfet_01v8/sky130_fd_pr__nfet_01v8__tt.pm3.spice
Reading file:  /home/cc/ee140/sp25/staff/ee140-tab/cadence/cadence_finalproj/sky130_release_0.0.4/cells/nfet_01v8_lvt/sky130_fd_pr__nfet_01v8_lvt__tt.corner.spice
Reading file:  /home/cc/ee140/sp25/staff/ee140-tab/cadence/cadence_finalproj/sky130_release_0.0.4/cells/nfet_01v8_lvt/sky130_fd_pr__nfet_01v8_lvt__tt.pm3.spice
Reading file:  /home/cc/ee140/sp25/staff/ee140-tab/cadence/cadence_finalproj/sky130_release_0.0.4/cells/pfet_01v8/sky130_fd_pr__pfet_01v8__tt.corner.spice
Reading file:  /home/cc/ee140/sp25/staff/ee140-tab/cadence/cadence_finalproj/sky130_release_0.0.4/cells/pfet_01v8/sky130_fd_pr__pfet_01v8__tt.pm3.spice
Reading file:  /home/cc/ee140/sp25/staff/ee140-tab/cadence/cadence_finalproj/sky130_release_0.0.4/cells/nfet_03v3_nvt/sky130_fd_pr__nfet_03v3_nvt__tt.corner.spice
Reading file:  /home/cc/ee140/sp25/staff/ee140-tab/cadence/cadence_finalproj/sky130_release_0.0.4/cells/nfet_03v3_nvt/sky130_fd_pr__nfet_03v3_nvt.pm3.spice
Reading file:  /home/cc/ee140/sp25/staff/ee140-tab/cadence/cadence_finalproj/sky130_release_0.0.4/cells/nfet_05v0_nvt/sky130_fd_pr__nfet_05v0_nvt__tt.corner.spice
Reading file:  /home/cc/ee140/sp25/staff/ee140-tab/cadence/cadence_finalproj/sky130_release_0.0.4/cells/nfet_05v0_nvt/sky130_fd_pr__nfet_05v0_nvt.pm3.spice
Reading file:  /home/cc/ee140/sp25/staff/ee140-tab/cadence/cadence_finalproj/sky130_release_0.0.4/cells/esd_nfet_01v8/sky130_fd_pr__esd_nfet_01v8__tt.corner.spice
Reading file:  /home/cc/ee140/sp25/staff/ee140-tab/cadence/cadence_finalproj/sky130_release_0.0.4/cells/esd_nfet_01v8/sky130_fd_pr__esd_nfet_01v8.pm3.spice
Reading file:  /home/cc/ee140/sp25/staff/ee140-tab/cadence/cadence_finalproj/sky130_release_0.0.4/cells/pfet_01v8_lvt/sky130_fd_pr__pfet_01v8_lvt__tt.corner.spice
Reading file:  /home/cc/ee140/sp25/staff/ee140-tab/cadence/cadence_finalproj/sky130_release_0.0.4/cells/pfet_01v8_lvt/sky130_fd_pr__pfet_01v8_lvt__tt.pm3.spice
Reading file:  /home/cc/ee140/sp25/staff/ee140-tab/cadence/cadence_finalproj/sky130_release_0.0.4/cells/pfet_01v8_hvt/sky130_fd_pr__pfet_01v8_hvt__tt.corner.spice
Reading file:  /home/cc/ee140/sp25/staff/ee140-tab/cadence/cadence_finalproj/sky130_release_0.0.4/cells/pfet_01v8_hvt/sky130_fd_pr__pfet_01v8_hvt__tt.pm3.spice
Reading file:  /home/cc/ee140/sp25/staff/ee140-tab/cadence/cadence_finalproj/sky130_release_0.0.4/cells/esd_pfet_g5v0d10v5/sky130_fd_pr__esd_pfet_g5v0d10v5__tt.corner.spice
Reading file:  /home/cc/ee140/sp25/staff/ee140-tab/cadence/cadence_finalproj/sky130_release_0.0.4/cells/esd_pfet_g5v0d10v5/sky130_fd_pr__esd_pfet_g5v0d10v5.pm3.spice
Reading file:  /home/cc/ee140/sp25/staff/ee140-tab/cadence/cadence_finalproj/sky130_release_0.0.4/cells/pfet_g5v0d10v5/sky130_fd_pr__pfet_g5v0d10v5__tt.corner.spice
Reading file:  /home/cc/ee140/sp25/staff/ee140-tab/cadence/cadence_finalproj/sky130_release_0.0.4/cells/pfet_g5v0d10v5/sky130_fd_pr__pfet_g5v0d10v5__tt.pm3.spice
Reading file:  /home/cc/ee140/sp25/staff/ee140-tab/cadence/cadence_finalproj/sky130_release_0.0.4/cells/pfet_g5v0d16v0/sky130_fd_pr__pfet_g5v0d16v0__tt.corner.spice
Reading file:  /home/cc/ee140/sp25/staff/ee140-tab/cadence/cadence_finalproj/sky130_release_0.0.4/cells/nfet_g5v0d10v5/sky130_fd_pr__nfet_g5v0d10v5__tt.corner.spice
Reading file:  /home/cc/ee140/sp25/staff/ee140-tab/cadence/cadence_finalproj/sky130_release_0.0.4/cells/nfet_g5v0d10v5/sky130_fd_pr__nfet_g5v0d10v5__tt.pm3.spice
Reading file:  /home/cc/ee140/sp25/staff/ee140-tab/cadence/cadence_finalproj/sky130_release_0.0.4/cells/nfet_g5v0d16v0/sky130_fd_pr__nfet_g5v0d16v0__tt_discrete.corner.spice
Reading file:  /home/cc/ee140/sp25/staff/ee140-tab/cadence/cadence_finalproj/sky130_release_0.0.4/cells/nfet_g5v0d16v0/sky130_fd_pr__nfet_g5v0d16v0__subcircuit.pm3.spice
Reading file:  /home/cc/ee140/sp25/staff/ee140-tab/cadence/cadence_finalproj/sky130_release_0.0.4/cells/nfet_g5v0d16v0/sky130_fd_pr__nfet_g5v0d16v0.pm3.spice
Reading file:  /home/cc/ee140/sp25/staff/ee140-tab/cadence/cadence_finalproj/sky130_release_0.0.4/cells/esd_nfet_g5v0d10v5/sky130_fd_pr__esd_nfet_g5v0d10v5__tt.corner.spice
Reading file:  /home/cc/ee140/sp25/staff/ee140-tab/cadence/cadence_finalproj/sky130_release_0.0.4/cells/esd_nfet_g5v0d10v5/sky130_fd_pr__esd_nfet_g5v0d10v5.pm3.spice
Reading file:  /home/cc/ee140/sp25/staff/ee140-tab/cadence/cadence_finalproj/sky130_release_0.0.4/models/corners/tt/nonfet.spice
Reading file:  /home/cc/ee140/sp25/staff/ee140-tab/cadence/cadence_finalproj/sky130_release_0.0.4/cells/nfet_01v8/sky130_fd_pr__nfet_01v8__mismatch.corner.spice
Reading file:  /home/cc/ee140/sp25/staff/ee140-tab/cadence/cadence_finalproj/sky130_release_0.0.4/cells/pfet_01v8/sky130_fd_pr__pfet_01v8__mismatch.corner.spice
Reading file:  /home/cc/ee140/sp25/staff/ee140-tab/cadence/cadence_finalproj/sky130_release_0.0.4/cells/nfet_01v8_lvt/sky130_fd_pr__nfet_01v8_lvt__mismatch.corner.spice
Reading file:  /home/cc/ee140/sp25/staff/ee140-tab/cadence/cadence_finalproj/sky130_release_0.0.4/cells/pfet_01v8_lvt/sky130_fd_pr__pfet_01v8_lvt__mismatch.corner.spice
Reading file:  /home/cc/ee140/sp25/staff/ee140-tab/cadence/cadence_finalproj/sky130_release_0.0.4/cells/pfet_01v8_hvt/sky130_fd_pr__pfet_01v8_hvt__mismatch.corner.spice
Reading file:  /home/cc/ee140/sp25/staff/ee140-tab/cadence/cadence_finalproj/sky130_release_0.0.4/cells/nfet_g5v0d10v5/sky130_fd_pr__nfet_g5v0d10v5__mismatch.corner.spice
Reading file:  /home/cc/ee140/sp25/staff/ee140-tab/cadence/cadence_finalproj/sky130_release_0.0.4/cells/pfet_g5v0d10v5/sky130_fd_pr__pfet_g5v0d10v5__mismatch.corner.spice
Reading file:  /home/cc/ee140/sp25/staff/ee140-tab/cadence/cadence_finalproj/sky130_release_0.0.4/cells/nfet_05v0_nvt/sky130_fd_pr__nfet_05v0_nvt__mismatch.corner.spice
Reading file:  /home/cc/ee140/sp25/staff/ee140-tab/cadence/cadence_finalproj/sky130_release_0.0.4/cells/nfet_03v3_nvt/sky130_fd_pr__nfet_03v3_nvt__mismatch.corner.spice
Reading file:  /home/cc/ee140/sp25/staff/ee140-tab/cadence/cadence_finalproj/sky130_release_0.0.4/models/r+c/res_typical__cap_typical.spice
Reading file:  /home/cc/ee140/sp25/staff/ee140-tab/cadence/cadence_finalproj/sky130_release_0.0.4/models/sky130_fd_pr__model__r+c.model.spice
Reading file:  /home/cc/ee140/sp25/staff/ee140-tab/cadence/cadence_finalproj/sky130_release_0.0.4/models/r+c.mrp1monte.spice
Reading file:  /home/cc/ee140/sp25/staff/ee140-tab/cadence/cadence_finalproj/sky130_release_0.0.4/cells/res_generic_nd/sky130_fd_pr__res_generic_nd.model.spice
Reading file:  /home/cc/ee140/sp25/staff/ee140-tab/cadence/cadence_finalproj/sky130_release_0.0.4/cells/res_generic_pd/sky130_fd_pr__res_generic_pd.model.spice
Reading file:  /home/cc/ee140/sp25/staff/ee140-tab/cadence/cadence_finalproj/sky130_release_0.0.4/models/parameters/typical.spice
Reading file:  /home/cc/ee140/sp25/staff/ee140-tab/cadence/cadence_finalproj/sky130_release_0.0.4/models/r+c/res_typical__cap_typical__lin.spice
Reading file:  /home/cc/ee140/sp25/staff/ee140-tab/cadence/cadence_finalproj/sky130_release_0.0.4/models/capacitors/sky130_fd_pr__model__cap_vpp.model.spice
Reading file:  /home/cc/ee140/sp25/staff/ee140-tab/cadence/cadence_finalproj/sky130_release_0.0.4/cells/cap_vpp_08p6x07p8_l1m1m2_noshield/sky130_fd_pr__cap_vpp_08p6x07p8_l1m1m2_noshield.model.spice
Reading file:  /home/cc/ee140/sp25/staff/ee140-tab/cadence/cadence_finalproj/sky130_release_0.0.4/cells/cap_vpp_04p4x04p6_l1m1m2_noshield/sky130_fd_pr__cap_vpp_04p4x04p6_l1m1m2_noshield.model.spice
Reading file:  /home/cc/ee140/sp25/staff/ee140-tab/cadence/cadence_finalproj/sky130_release_0.0.4/cells/cap_vpp_11p5x11p7_l1m1m2_noshield/sky130_fd_pr__cap_vpp_11p5x11p7_l1m1m2_noshield.model.spice
Reading file:  /home/cc/ee140/sp25/staff/ee140-tab/cadence/cadence_finalproj/sky130_release_0.0.4/cells/cap_vpp_01p8x01p8_m1m2_noshield/sky130_fd_pr__cap_vpp_01p8x01p8_m1m2_noshield.model.spice
Reading file:  /home/cc/ee140/sp25/staff/ee140-tab/cadence/cadence_finalproj/sky130_release_0.0.4/cells/cap_vpp_08p6x07p8_m1m2_shieldl1/sky130_fd_pr__cap_vpp_08p6x07p8_m1m2_shieldl1.model.spice
Reading file:  /home/cc/ee140/sp25/staff/ee140-tab/cadence/cadence_finalproj/sky130_release_0.0.4/cells/cap_vpp_04p4x04p6_m1m2_shieldl1/sky130_fd_pr__cap_vpp_04p4x04p6_m1m2_shieldl1.model.spice
Reading file:  /home/cc/ee140/sp25/staff/ee140-tab/cadence/cadence_finalproj/sky130_release_0.0.4/cells/cap_vpp_11p5x11p7_m1m2_shieldl1/sky130_fd_pr__cap_vpp_11p5x11p7_m1m2_shieldl1.model.spice
Reading file:  /home/cc/ee140/sp25/staff/ee140-tab/cadence/cadence_finalproj/sky130_release_0.0.4/cells/cap_vpp_08p6x07p8_l1m1m2_shieldpo_floatm3/sky130_fd_pr__cap_vpp_08p6x07p8_l1m1m2_shieldpo_floatm3.model.spice
Reading file:  /home/cc/ee140/sp25/staff/ee140-tab/cadence/cadence_finalproj/sky130_release_0.0.4/cells/cap_vpp_04p4x04p6_l1m1m2_shieldpo_floatm3/sky130_fd_pr__cap_vpp_04p4x04p6_l1m1m2_shieldpo_floatm3.model.spice
Reading file:  /home/cc/ee140/sp25/staff/ee140-tab/cadence/cadence_finalproj/sky130_release_0.0.4/cells/cap_vpp_11p5x11p7_l1m1m2_shieldpom3/sky130_fd_pr__cap_vpp_11p5x11p7_l1m1m2_shieldpom3.model.spice
Reading file:  /home/cc/ee140/sp25/staff/ee140-tab/cadence/cadence_finalproj/sky130_release_0.0.4/cells/cap_vpp_03p9x03p9_m1m2_shieldl1_floatm3/sky130_fd_pr__cap_vpp_03p9x03p9_m1m2_shieldl1_floatm3.model.spice
Reading file:  /home/cc/ee140/sp25/staff/ee140-tab/cadence/cadence_finalproj/sky130_release_0.0.4/cells/cap_vpp_04p4x04p6_l1m1m2_noshield/sky130_fd_pr__cap_vpp_04p4x04p6_l1m1m2_noshield_o1.model.spice
Reading file:  /home/cc/ee140/sp25/staff/ee140-tab/cadence/cadence_finalproj/sky130_release_0.0.4/cells/cap_vpp_08p6x07p8_m1m2_noshield/sky130_fd_pr__cap_vpp_08p6x07p8_m1m2_noshield.model.spice
Reading file:  /home/cc/ee140/sp25/staff/ee140-tab/cadence/cadence_finalproj/sky130_release_0.0.4/cells/cap_vpp_04p4x04p6_m1m2_noshield/sky130_fd_pr__cap_vpp_04p4x04p6_m1m2_noshield_o2.model.spice
Reading file:  /home/cc/ee140/sp25/staff/ee140-tab/cadence/cadence_finalproj/sky130_release_0.0.4/cells/cap_vpp_02p4x04p6_m1m2_noshield/sky130_fd_pr__cap_vpp_02p4x04p6_m1m2_noshield.model.spice
Reading file:  /home/cc/ee140/sp25/staff/ee140-tab/cadence/cadence_finalproj/sky130_release_0.0.4/cells/cap_vpp_04p4x04p6_m1m2_noshield/sky130_fd_pr__cap_vpp_04p4x04p6_m1m2_noshield.model.spice
Reading file:  /home/cc/ee140/sp25/staff/ee140-tab/cadence/cadence_finalproj/sky130_release_0.0.4/cells/cap_vpp_11p5x11p7_m1m2_noshield/sky130_fd_pr__cap_vpp_11p5x11p7_m1m2_noshield.model.spice
Reading file:  /home/cc/ee140/sp25/staff/ee140-tab/cadence/cadence_finalproj/sky130_release_0.0.4/cells/npn_05v5/sky130_fd_pr__npn_05v5__t.corner.spice
Reading file:  /home/cc/ee140/sp25/staff/ee140-tab/cadence/cadence_finalproj/sky130_release_0.0.4/cells/npn_05v5/sky130_fd_pr__npn_05v5_W1p00L1p00.model.spice
Reading file:  /home/cc/ee140/sp25/staff/ee140-tab/cadence/cadence_finalproj/sky130_release_0.0.4/cells/npn_05v5/sky130_fd_pr__npn_05v5_W1p00L2p00.model.spice
Reading file:  /home/cc/ee140/sp25/staff/ee140-tab/cadence/cadence_finalproj/sky130_release_0.0.4/cells/npn_11v0/sky130_fd_pr__npn_11v0_W1p00L1p00.model.spice
Reading file:  /home/cc/ee140/sp25/staff/ee140-tab/cadence/cadence_finalproj/sky130_release_0.0.4/cells/pnp_05v5/sky130_fd_pr__pnp_05v5_W3p40L3p40.model.spice
Reading file:  /home/cc/ee140/sp25/staff/ee140-tab/cadence/cadence_finalproj/sky130_release_0.0.4/models/corners/tt/specialized_cells.spice
Reading file:  /home/cc/ee140/sp25/staff/ee140-tab/cadence/cadence_finalproj/sky130_release_0.0.4/cells/special_nfet_latch/sky130_fd_pr__special_nfet_latch__mismatch.corner.spice
Reading file:  /home/cc/ee140/sp25/staff/ee140-tab/cadence/cadence_finalproj/sky130_release_0.0.4/cells/special_nfet_pass/sky130_fd_pr__special_nfet_pass__mismatch.corner.spice
Reading file:  /home/cc/ee140/sp25/staff/ee140-tab/cadence/cadence_finalproj/sky130_release_0.0.4/cells/special_nfet_pass_flash/sky130_fd_pr__special_nfet_pass_flash__mismatch.corner.spice
Reading file:  /home/cc/ee140/sp25/staff/ee140-tab/cadence/cadence_finalproj/sky130_release_0.0.4/cells/special_pfet_pass/sky130_fd_pr__special_pfet_pass__mismatch.corner.spice
Reading file:  /home/cc/ee140/sp25/staff/ee140-tab/cadence/cadence_finalproj/sky130_release_0.0.4/cells/special_nfet_pass_lvt/sky130_fd_pr__special_nfet_pass_lvt__tt.corner.spice
Reading file:  /home/cc/ee140/sp25/staff/ee140-tab/cadence/cadence_finalproj/sky130_release_0.0.4/cells/special_nfet_pass_lvt/sky130_fd_pr__special_nfet_pass_lvt.pm3.spice
Reading file:  /home/cc/ee140/sp25/staff/ee140-tab/cadence/cadence_finalproj/sky130_release_0.0.4/models/all.spice
Reading file:  /home/cc/ee140/sp25/staff/ee140-tab/cadence/cadence_finalproj/sky130_release_0.0.4/models/parameters/lod.spice
Reading file:  /home/cc/ee140/sp25/staff/ee140-tab/cadence/cadence_finalproj/sky130_release_0.0.4/models/parasitics/sky130_fd_pr__model__parasitic__diode_ps2nw.model.spice
Reading file:  /home/cc/ee140/sp25/staff/ee140-tab/cadence/cadence_finalproj/sky130_release_0.0.4/cells/diode_pw2nd_05v5/sky130_fd_pr__diode_pw2nd_05v5.model.spice
Reading file:  /home/cc/ee140/sp25/staff/ee140-tab/cadence/cadence_finalproj/sky130_release_0.0.4/cells/diode_pd2nw_05v5/sky130_fd_pr__diode_pd2nw_05v5.model.spice
Reading file:  /home/cc/ee140/sp25/staff/ee140-tab/cadence/cadence_finalproj/sky130_release_0.0.4/cells/diode_pd2nw_05v5_hvt/sky130_fd_pr__diode_pd2nw_05v5_hvt.model.spice
Reading file:  /home/cc/ee140/sp25/staff/ee140-tab/cadence/cadence_finalproj/sky130_release_0.0.4/cells/diode_pw2nd_11v0/sky130_fd_pr__diode_pw2nd_11v0.model.spice
Reading file:  /home/cc/ee140/sp25/staff/ee140-tab/cadence/cadence_finalproj/sky130_release_0.0.4/cells/diode_pd2nw_11v0/sky130_fd_pr__diode_pd2nw_11v0.model.spice
Reading file:  /home/cc/ee140/sp25/staff/ee140-tab/cadence/cadence_finalproj/sky130_release_0.0.4/cells/diode_pw2nd_05v5_nvt/sky130_fd_pr__diode_pw2nd_05v5_nvt.model.spice
Reading file:  /home/cc/ee140/sp25/staff/ee140-tab/cadence/cadence_finalproj/sky130_release_0.0.4/cells/diode_pw2nd_05v5_lvt/sky130_fd_pr__diode_pw2nd_05v5_lvt.model.spice
Reading file:  /home/cc/ee140/sp25/staff/ee140-tab/cadence/cadence_finalproj/sky130_release_0.0.4/cells/diode_pd2nw_05v5_lvt/sky130_fd_pr__diode_pd2nw_05v5_lvt.model.spice
Reading file:  /home/cc/ee140/sp25/staff/ee140-tab/cadence/cadence_finalproj/sky130_release_0.0.4/models/parasitics/sky130_fd_pr__model__parasitic__diode_pw2dn.model.spice
Reading file:  /home/cc/ee140/sp25/staff/ee140-tab/cadence/cadence_finalproj/sky130_release_0.0.4/models/parasitics/sky130_fd_pr__model__parasitic__diode_ps2dn.model.spice
Reading file:  /home/cc/ee140/sp25/staff/ee140-tab/cadence/cadence_finalproj/sky130_release_0.0.4/cells/pfet_g5v0d16v0/sky130_fd_pr__pfet_g5v0d16v0__parasitic__diode_pw2dn.model.spice
Reading file:  /home/cc/ee140/sp25/staff/ee140-tab/cadence/cadence_finalproj/sky130_release_0.0.4/cells/pnp_05v5/sky130_fd_pr__pnp_05v5_W0p68L0p68.model.spice
Reading file:  /home/cc/ee140/sp25/staff/ee140-tab/cadence/cadence_finalproj/sky130_release_0.0.4/cells/pfet_g5v0d16v0/sky130_fd_pr__pfet_g5v0d16v0.pm3.spice
Reading file:  /home/cc/ee140/sp25/staff/ee140-tab/cadence/cadence_finalproj/sky130_release_0.0.4/cells/pfet_g5v0d16v0/sky130_fd_pr__pfet_g5v0d16v0__subcircuit.pm3.spice
Reading file:  /home/cc/ee140/sp25/staff/ee140-tab/cadence/cadence_finalproj/sky130_release_0.0.4/cells/cap_var_lvt/sky130_fd_pr__cap_var_lvt.model.spice
Reading file:  /home/cc/ee140/sp25/staff/ee140-tab/cadence/cadence_finalproj/sky130_release_0.0.4/cells/cap_vpp_08p6x07p8_l1m1m2_noshield/sky130_fd_pr__cap_vpp_08p6x07p8_l1m1m2_noshield_o1.model.spice
Reading file:  /home/cc/ee140/sp25/staff/ee140-tab/cadence/cadence_finalproj/sky130_release_0.0.4/models/capacitors/sky130_fd_pr__model__cap_mim.model.spice
Reading file:  /home/cc/ee140/sp25/staff/ee140-tab/cadence/cadence_finalproj/sky130_release_0.0.4/cells/cap_mim_m3/sky130_fd_pr__cap_mim_m3_1.model.spice
Reading file:  /home/cc/ee140/sp25/staff/ee140-tab/cadence/cadence_finalproj/sky130_release_0.0.4/cells/cap_mim_m3/sky130_fd_pr__cap_mim_m3_2.model.spice
Reading file:  /home/cc/ee140/sp25/staff/ee140-tab/cadence/cadence_finalproj/sky130_release_0.0.4/models/capacitors/sky130_fd_pr__model__cap_vpp_only_mos.model.spice
Reading file:  /home/cc/ee140/sp25/staff/ee140-tab/cadence/cadence_finalproj/sky130_release_0.0.4/cells/cap_vpp_04p4x04p6_m1m2_noshield/sky130_fd_pr__cap_vpp_04p4x04p6_m1m2_noshield_o1nhv.model.spice
Reading file:  /home/cc/ee140/sp25/staff/ee140-tab/cadence/cadence_finalproj/sky130_release_0.0.4/cells/cap_vpp_04p4x04p6_m1m2_noshield/sky130_fd_pr__cap_vpp_04p4x04p6_m1m2_noshield_o1phv.model.spice
Reading file:  /home/cc/ee140/sp25/staff/ee140-tab/cadence/cadence_finalproj/sky130_release_0.0.4/models/sonos_p/begin_of_life/mm.spice
Reading file:  /home/cc/ee140/sp25/staff/ee140-tab/cadence/cadence_finalproj/sky130_release_0.0.4/models/sonos_e/begin_of_life/mm.spice
Reading file:  /home/cc/ee140/sp25/staff/ee140-tab/cadence/cadence_finalproj/sky130_release_0.0.4/models/head.spice
Reading file:  /home/cc/ee140/sp25/staff/ee140-tab/cadence/cadence_finalproj/sky130_release_0.0.4/cells/special_nfet_pass/sky130_fd_pr__special_nfet_pass.pm3.spice
Reading file:  /home/cc/ee140/sp25/staff/ee140-tab/cadence/cadence_finalproj/sky130_release_0.0.4/cells/special_nfet_latch/sky130_fd_pr__special_nfet_latch.pm3.spice
Reading file:  /home/cc/ee140/sp25/staff/ee140-tab/cadence/cadence_finalproj/sky130_release_0.0.4/cells/special_pfet_pass/sky130_fd_pr__special_pfet_pass.pm3.spice
Reading file:  /home/cc/ee140/sp25/staff/ee140-tab/cadence/cadence_finalproj/sky130_release_0.0.4/cells/special_nfet_pass_flash/sky130_fd_pr__special_nfet_pass_flash.pm3.spice
Reading file:  /home/cc/ee140/sp25/staff/ee140-tab/cadence/cadence_finalproj/sky130_release_0.0.4/models/capacitors/sky130_fd_pr__model__cap_vpp_only_pq.model.spice
Reading file:  /home/cc/ee140/sp25/staff/ee140-tab/cadence/cadence_finalproj/sky130_release_0.0.4/cells/cap_vpp_08p6x07p8_m1m2m3_shieldl1/sky130_fd_pr__cap_vpp_08p6x07p8_m1m2m3_shieldl1.model.spice
Reading file:  /home/cc/ee140/sp25/staff/ee140-tab/cadence/cadence_finalproj/sky130_release_0.0.4/cells/cap_vpp_04p4x04p6_m1m2m3_shieldl1/sky130_fd_pr__cap_vpp_04p4x04p6_m1m2m3_shieldl1.model.spice
Reading file:  /home/cc/ee140/sp25/staff/ee140-tab/cadence/cadence_finalproj/sky130_release_0.0.4/cells/cap_vpp_11p5x11p7_m1m2m3_shieldl1/sky130_fd_pr__cap_vpp_11p5x11p7_m1m2m3_shieldl1.model.spice
Reading file:  /home/cc/ee140/sp25/staff/ee140-tab/cadence/cadence_finalproj/sky130_release_0.0.4/cells/cap_vpp_11p5x11p7_l1m1m2m3_shieldm4/sky130_fd_pr__cap_vpp_11p5x11p7_l1m1m2m3_shieldm4.model.spice
Reading file:  /home/cc/ee140/sp25/staff/ee140-tab/cadence/cadence_finalproj/sky130_release_0.0.4/cells/cap_vpp_11p5x11p7_l1m1m2m3_shieldpom4/sky130_fd_pr__cap_vpp_11p5x11p7_l1m1m2m3_shieldpom4.model.spice
Reading file:  /home/cc/ee140/sp25/staff/ee140-tab/cadence/cadence_finalproj/sky130_release_0.0.4/cells/cap_vpp_06p8x06p1_l1m1m2m3_shieldpom4/sky130_fd_pr__cap_vpp_06p8x06p1_l1m1m2m3_shieldpom4.model.spice
Reading file:  /home/cc/ee140/sp25/staff/ee140-tab/cadence/cadence_finalproj/sky130_release_0.0.4/cells/cap_vpp_06p8x06p1_m1m2m3_shieldl1m4/sky130_fd_pr__cap_vpp_06p8x06p1_m1m2m3_shieldl1m4.model.spice
Reading file:  /home/cc/ee140/sp25/staff/ee140-tab/cadence/cadence_finalproj/sky130_release_0.0.4/models/capacitors/sky130_fd_pr__model__cap_vpp_only_p.model.spice
Reading file:  /home/cc/ee140/sp25/staff/ee140-tab/cadence/cadence_finalproj/sky130_release_0.0.4/cells/cap_vpp_11p5x11p7_l1m1m2m3m4_shieldm5/sky130_fd_pr__cap_vpp_11p5x11p7_l1m1m2m3m4_shieldm5.model.spice
Reading file:  /home/cc/ee140/sp25/staff/ee140-tab/cadence/cadence_finalproj/sky130_release_0.0.4/cells/cap_vpp_11p5x11p7_l1m1m2m3m4_shieldpom5/sky130_fd_pr__cap_vpp_11p5x11p7_l1m1m2m3m4_shieldpom5.model.spice
Reading file:  /home/cc/ee140/sp25/staff/ee140-tab/cadence/cadence_finalproj/sky130_release_0.0.4/cells/cap_vpp_11p5x11p7_m1m2m3m4_shieldl1m5/sky130_fd_pr__cap_vpp_11p5x11p7_m1m2m3m4_shieldl1m5.model.spice
Reading file:  /home/cc/ee140/sp25/staff/ee140-tab/cadence/cadence_finalproj/sky130_release_0.0.4/cells/cap_vpp_11p5x11p7_m1m4_noshield/sky130_fd_pr__cap_vpp_11p5x11p7_m1m4_noshield.model.spice
Reading file:  /home/cc/ee140/sp25/staff/ee140-tab/cadence/cadence_finalproj/sky130_release_0.0.4/cells/cap_vpp_11p5x11p7_m1m2m3m4_shieldm5/sky130_fd_pr__cap_vpp_11p5x11p7_m1m2m3m4_shieldm5.model.spice
Reading file:  /home/cc/ee140/sp25/staff/ee140-tab/cadence/cadence_finalproj/sky130_release_0.0.4/cells/cap_vpp_08p6x07p8_m1m2m3_shieldl1m5_floatm4/sky130_fd_pr__cap_vpp_08p6x07p8_m1m2m3_shieldl1m5_floatm4.model.spice
Reading file:  /home/cc/ee140/sp25/staff/ee140-tab/cadence/cadence_finalproj/sky130_release_0.0.4/cells/cap_vpp_04p4x04p6_m1m2m3_shieldl1m5_floatm4/sky130_fd_pr__cap_vpp_04p4x04p6_m1m2m3_shieldl1m5_floatm4.model.spice
Reading file:  /home/cc/ee140/sp25/staff/ee140-tab/cadence/cadence_finalproj/sky130_release_0.0.4/cells/cap_vpp_11p5x11p7_m1m2m3_shieldl1m5_floatm4/sky130_fd_pr__cap_vpp_11p5x11p7_m1m2m3_shieldl1m5_floatm4.model.spice
Reading file:  /home/cc/ee140/sp25/staff/ee140-tab/cadence/cadence_finalproj/sky130_release_0.0.4/cells/cap_vpp_11p3x11p8_l1m1m2m3m4_shieldm5/sky130_fd_pr__cap_vpp_11p3x11p8_l1m1m2m3m4_shieldm5_nhv.model.spice
Reading file:  /home/cc/ee140/sp25/staff/ee140-tab/cadence/cadence_finalproj/sky130_release_0.0.4/cells/cap_vpp_11p3x11p8_l1m1m2m3m4_shieldm5/sky130_fd_pr__cap_vpp_11p3x11p8_l1m1m2m3m4_shieldm5_nhv__base.model.spice
Reading file:  /home/cc/ee140/sp25/staff/ee140-tab/cadence/cadence_finalproj/sky130_release_0.0.4/cells/cap_vpp_11p5x11p7_l1m1m2m3m4_shieldpom5/sky130_fd_pr__cap_vpp_11p5x11p7_l1m1m2m3m4_shieldpom5_x.model.spice
Reading file:  /home/cc/ee140/sp25/staff/ee140-tab/cadence/cadence_finalproj/sky130_release_0.0.4/cells/cap_vpp_02p9x06p1_m1m2m3m4_shieldl1/sky130_fd_pr__cap_vpp_02p9x06p1_m1m2m3m4_shieldl1_fingercap2.model.spice
Reading file:  /home/cc/ee140/sp25/staff/ee140-tab/cadence/cadence_finalproj/sky130_release_0.0.4/cells/cap_vpp_02p7x11p1_m1m2m3m4_shieldl1/sky130_fd_pr__cap_vpp_02p7x11p1_m1m2m3m4_shieldl1_fingercap.model.spice
Reading file:  /home/cc/ee140/sp25/staff/ee140-tab/cadence/cadence_finalproj/sky130_release_0.0.4/cells/cap_vpp_02p7x21p1_m1m2m3m4_shieldl1/sky130_fd_pr__cap_vpp_02p7x21p1_m1m2m3m4_shieldl1_fingercap.model.spice
Reading file:  /home/cc/ee140/sp25/staff/ee140-tab/cadence/cadence_finalproj/sky130_release_0.0.4/cells/cap_vpp_02p7x41p1_m1m2m3m4_shieldl1/sky130_fd_pr__cap_vpp_02p7x41p1_m1m2m3m4_shieldl1_fingercap.model.spice
Reading file:  /home/cc/ee140/sp25/staff/ee140-tab/cadence/cadence_finalproj/sky130_release_0.0.4/cells/cap_vpp_02p7x06p1_m1m2m3m4_shieldl1/sky130_fd_pr__cap_vpp_02p7x06p1_m1m2m3m4_shieldl1_fingercap.model.spice
Reading file:  /home/cc/ee140/sp25/staff/ee140-tab/cadence/cadence_finalproj/sky130_release_0.0.4/cells/cap_vpp_11p3x11p3_m1m2m3m4_shieldl1/sky130_fd_pr__cap_vpp_11p3x11p3_m1m2m3m4_shieldl1_wafflecap.model.spice
Reading file:  /home/cc/ee140/sp25/staff/ee140-tab/cadence/cadence_finalproj/sky130_release_0.0.4/cells/cap_vpp_05p9x05p9_m1m2m3m4_shieldl1/sky130_fd_pr__cap_vpp_05p9x05p9_m1m2m3m4_shieldl1_wafflecap.model.spice
Reading file:  /home/cc/ee140/sp25/staff/ee140-tab/cadence/cadence_finalproj/sky130_release_0.0.4/cells/cap_vpp_44p7x23p1_pol1m1m2m3m4m5_noshield/sky130_fd_pr__cap_vpp_44p7x23p1_pol1m1m2m3m4m5_noshield.model.spice
Reading file:  /home/cc/ee140/sp25/staff/ee140-tab/cadence/cadence_finalproj/sky130_release_0.0.4/models/sky130_fd_pr__model__linear.model.spice
Reading file:  /home/cc/ee140/sp25/staff/ee140-tab/cadence/cadence_finalproj/sky130_release_0.0.4/models/parasitics/sky130_fd_pr__model__parasitic__res_po.model.spice
Reading file:  /home/cc/ee140/sp25/staff/ee140-tab/cadence/cadence_finalproj/sky130_release_0.0.4/cells/res_xhigh_po/sky130_fd_pr__res_xhigh_po.model.spice
Reading file:  /home/cc/ee140/sp25/staff/ee140-tab/cadence/cadence_finalproj/sky130_release_0.0.4/cells/res_high_po/sky130_fd_pr__res_high_po.model.spice
Reading file:  /home/cc/ee140/sp25/staff/ee140-tab/cadence/cadence_finalproj/sky130_release_0.0.4/cells/res_xhigh_po/sky130_fd_pr__res_xhigh_po_0p35.model.spice
Reading file:  /home/cc/ee140/sp25/staff/ee140-tab/cadence/cadence_finalproj/sky130_release_0.0.4/cells/res_xhigh_po/sky130_fd_pr__res_xhigh_po_0p69.model.spice
Reading file:  /home/cc/ee140/sp25/staff/ee140-tab/cadence/cadence_finalproj/sky130_release_0.0.4/cells/res_xhigh_po/sky130_fd_pr__res_xhigh_po_1p41.model.spice
Reading file:  /home/cc/ee140/sp25/staff/ee140-tab/cadence/cadence_finalproj/sky130_release_0.0.4/cells/res_xhigh_po/sky130_fd_pr__res_xhigh_po_2p85.model.spice
Reading file:  /home/cc/ee140/sp25/staff/ee140-tab/cadence/cadence_finalproj/sky130_release_0.0.4/cells/res_xhigh_po/sky130_fd_pr__res_xhigh_po_5p73.model.spice
Reading file:  /home/cc/ee140/sp25/staff/ee140-tab/cadence/cadence_finalproj/sky130_release_0.0.4/cells/res_xhigh_po/sky130_fd_pr__res_xhigh_po__base.model.spice
Reading file:  /home/cc/ee140/sp25/staff/ee140-tab/cadence/cadence_finalproj/sky130_release_0.0.4/cells/res_high_po/sky130_fd_pr__res_high_po_0p35.model.spice
Reading file:  /home/cc/ee140/sp25/staff/ee140-tab/cadence/cadence_finalproj/sky130_release_0.0.4/cells/res_high_po/sky130_fd_pr__res_high_po_0p69.model.spice
Reading file:  /home/cc/ee140/sp25/staff/ee140-tab/cadence/cadence_finalproj/sky130_release_0.0.4/cells/res_high_po/sky130_fd_pr__res_high_po_1p41.model.spice
Reading file:  /home/cc/ee140/sp25/staff/ee140-tab/cadence/cadence_finalproj/sky130_release_0.0.4/cells/res_high_po/sky130_fd_pr__res_high_po_2p85.model.spice
Reading file:  /home/cc/ee140/sp25/staff/ee140-tab/cadence/cadence_finalproj/sky130_release_0.0.4/cells/res_high_po/sky130_fd_pr__res_high_po_5p73.model.spice
Reading file:  /home/cc/ee140/sp25/staff/ee140-tab/cadence/cadence_finalproj/sky130_release_0.0.4/cells/rf_nfet_g5v0d10v5/sky130_fd_pr__rf_nfet_g5v0d10v5.pm3.spice
Reading file:  /home/cc/ee140/sp25/staff/ee140-tab/cadence/cadence_finalproj/sky130_release_0.0.4/cells/rf_nfet_01v8_lvt/sky130_fd_pr__rf_nfet_01v8_lvt.pm3.spice
Reading file:  /home/cc/ee140/sp25/staff/ee140-tab/cadence/cadence_finalproj/sky130_release_0.0.4/cells/rf_nfet_01v8/sky130_fd_pr__rf_nfet_01v8.pm3.spice
Reading file:  /home/cc/ee140/sp25/staff/ee140-tab/cadence/cadence_finalproj/sky130_release_0.0.4/cells/rf_pfet_01v8/sky130_fd_pr__rf_pfet_01v8.pm3.spice
Reading file:  /home/cc/ee140/sp25/staff/ee140-tab/cadence/cadence_finalproj/sky130_release_0.0.4/cells/rf_pfet_01v8_mvt/sky130_fd_pr__rf_pfet_01v8_mvt.pm3.spice
Reading file:  /home/cc/ee140/sp25/staff/ee140-tab/cadence/cadence_finalproj/sky130_release_0.0.4/models/corners/tt/rf.spice
Reading file:  /home/cc/ee140/sp25/staff/ee140-tab/cadence/cadence_finalproj/sky130_release_0.0.4/cells/rf_nfet_01v8/sky130_fd_pr__rf_nfet_01v8_b__tt.corner.spice
Reading file:  /home/cc/ee140/sp25/staff/ee140-tab/cadence/cadence_finalproj/sky130_release_0.0.4/cells/rf_nfet_01v8/sky130_fd_pr__rf_nfet_01v8_b.pm3.spice
Reading file:  /home/cc/ee140/sp25/staff/ee140-tab/cadence/cadence_finalproj/sky130_release_0.0.4/cells/rf_nfet_01v8_lvt/sky130_fd_pr__rf_nfet_01v8_lvt_b__tt.corner.spice
Reading file:  /home/cc/ee140/sp25/staff/ee140-tab/cadence/cadence_finalproj/sky130_release_0.0.4/cells/rf_nfet_01v8_lvt/sky130_fd_pr__rf_nfet_01v8_lvt_b.pm3.spice
Reading file:  /home/cc/ee140/sp25/staff/ee140-tab/cadence/cadence_finalproj/sky130_release_0.0.4/cells/rf_nfet_g5v0d10v5/sky130_fd_pr__rf_nfet_g5v0d10v5_b__tt.corner.spice
Reading file:  /home/cc/ee140/sp25/staff/ee140-tab/cadence/cadence_finalproj/sky130_release_0.0.4/cells/rf_nfet_g5v0d10v5/sky130_fd_pr__rf_nfet_g5v0d10v5_b.pm3.spice
Reading file:  /home/cc/ee140/sp25/staff/ee140-tab/cadence/cadence_finalproj/sky130_release_0.0.4/cells/rf_pfet_01v8/sky130_fd_pr__rf_pfet_01v8_b__tt.corner.spice
Reading file:  /home/cc/ee140/sp25/staff/ee140-tab/cadence/cadence_finalproj/sky130_release_0.0.4/cells/rf_pfet_01v8/sky130_fd_pr__rf_pfet_01v8_b.pm3.spice
Reading file:  /home/cc/ee140/sp25/staff/ee140-tab/cadence/cadence_finalproj/sky130_release_0.0.4/cells/rf_nfet_01v8/sky130_fd_pr__rf_nfet_01v8__mismatch.corner.spice
Reading file:  /home/cc/ee140/sp25/staff/ee140-tab/cadence/cadence_finalproj/sky130_release_0.0.4/cells/rf_nfet_01v8_lvt/sky130_fd_pr__rf_nfet_01v8_lvt__mismatch.corner.spice
Reading file:  /home/cc/ee140/sp25/staff/ee140-tab/cadence/cadence_finalproj/sky130_release_0.0.4/cells/rf_nfet_g5v0d10v5/sky130_fd_pr__rf_nfet_g5v0d10v5__mismatch.corner.spice
Reading file:  /home/cc/ee140/sp25/staff/ee140-tab/cadence/cadence_finalproj/sky130_release_0.0.4/cells/rf_pfet_01v8/sky130_fd_pr__rf_pfet_01v8__mismatch.corner.spice
Reading file:  /home/cc/ee140/sp25/staff/ee140-tab/cadence/cadence_finalproj/sky130_release_0.0.4/cells/rf_pfet_01v8_mvt/sky130_fd_pr__rf_pfet_01v8_mvt__tt_discrete.corner.spice
Reading file:  /home/cc/ee140/sp25/staff/ee140-tab/cadence/cadence_finalproj/sky130_release_0.0.4/cells/pfet_01v8_mvt/sky130_fd_pr__pfet_01v8_mvt.pm3.spice
Reading file:  /home/cc/ee140/sp25/staff/ee140-tab/cadence/cadence_finalproj/sky130_release_0.0.4/cells/rf_pfet_01v8_mvt/sky130_fd_pr__rf_pfet_01v8_mvt__mismatch.corner.spice
Reading file:  /home/cc/ee140/sp25/staff/ee140-tab/cadence/cadence_finalproj/sky130_release_0.0.4/cells/pfet_20v0/sky130_fd_pr__pfet_20v0__tt_discrete.corner.spice
Reading file:  /home/cc/ee140/sp25/staff/ee140-tab/cadence/cadence_finalproj/sky130_release_0.0.4/cells/pfet_20v0/sky130_fd_pr__pfet_20v0__subcircuit.pm3.spice
Reading file:  /home/cc/ee140/sp25/staff/ee140-tab/cadence/cadence_finalproj/sky130_release_0.0.4/cells/pfet_20v0/sky130_fd_pr__pfet_20v0__parasitic__diode_pw2dn.model.spice
Reading file:  /home/cc/ee140/sp25/staff/ee140-tab/cadence/cadence_finalproj/sky130_release_0.0.4/cells/nfet_20v0/sky130_fd_pr__nfet_20v0__tt_discrete.corner.spice
Reading file:  /home/cc/ee140/sp25/staff/ee140-tab/cadence/cadence_finalproj/sky130_release_0.0.4/cells/nfet_20v0/sky130_fd_pr__nfet_20v0__subcircuit.pm3.spice
Reading file:  /home/cc/ee140/sp25/staff/ee140-tab/cadence/cadence_finalproj/sky130_release_0.0.4/models/parasitics/sky130_fd_pr__model__parasitic__diode_pw2dn__extended_drain.model.spice
Reading file:  /home/cc/ee140/sp25/staff/ee140-tab/cadence/cadence_finalproj/sky130_release_0.0.4/cells/diode_pw2nd_05v5/sky130_fd_pr__diode_pw2nd_05v5__extended_drain.model.spice
Reading file:  /home/cc/ee140/sp25/staff/ee140-tab/cadence/cadence_finalproj/sky130_release_0.0.4/cells/nfet_20v0_iso/sky130_fd_pr__nfet_20v0_iso__subcircuit.pm3.spice
Reading file:  /home/cc/ee140/sp25/staff/ee140-tab/cadence/cadence_finalproj/sky130_release_0.0.4/models/parasitics/sky130_fd_pr__model__parasitic__diode_ps2dn__extended_drain.model.spice
Reading file:  /home/cc/ee140/sp25/staff/ee140-tab/cadence/cadence_finalproj/sky130_release_0.0.4/cells/nfet_20v0_reverse_iso/sky130_fd_pr__nfet_20v0_reverse_iso__subcircuit.pm3.spice
Reading file:  /home/cc/ee140/sp25/staff/ee140-tab/cadence/cadence_finalproj/sky130_release_0.0.4/cells/nfet_20v0_zvt/sky130_fd_pr__nfet_20v0_zvt__tt_discrete.corner.spice
Reading file:  /home/cc/ee140/sp25/staff/ee140-tab/cadence/cadence_finalproj/sky130_release_0.0.4/cells/nfet_20v0_zvt/sky130_fd_pr__nfet_20v0_zvt__subcircuit.pm3.spice
Reading file:  /home/cc/ee140/sp25/staff/ee140-tab/cadence/cadence_finalproj/sky130_release_0.0.4/cells/nfet_20v0_zvt/sky130_fd_pr__nfet_20v0_zvt__parasitic__diode_ps2dn__extended_drain.model.spice
Reading file:  /home/cc/ee140/sp25/staff/ee140-tab/cadence/cadence_finalproj/sky130_release_0.0.4/cells/nfet_20v0_nvt/sky130_fd_pr__nfet_20v0_nvt__tt_discrete.corner.spice
Reading file:  /home/cc/ee140/sp25/staff/ee140-tab/cadence/cadence_finalproj/sky130_release_0.0.4/cells/nfet_20v0_nvt/sky130_fd_pr__nfet_20v0_nvt__subcircuit.pm3.spice
Reading file:  /home/cc/ee140/sp25/staff/ee140-tab/cadence/cadence_finalproj/sky130_release_0.0.4/cells/nfet_20v0_nvt/sky130_fd_pr__nfet_20v0_nvt__parasitic__diode_ps2dn.model.spice
Time for NDB Parsing: CPU = 656.778 ms, elapsed = 11.3444 s.
Time accumulated: CPU = 776.354 ms, elapsed = 11.3444 s.
Peak resident memory used = 186 Mbytes.

TCP: opening server port eda-4.EECS.Berkeley.EDU:40853

Warning from spectre during hierarchy flattening.
    WARNING (SFE-466): "input.scs" 26: `R0' is variable resistance which is not safely shorted according to rabsshort threshold.
    WARNING (SFE-466): "input.scs" 26: `R0' is variable resistance which is not safely shorted according to rabsshort threshold.

Time for Elaboration: CPU = 55.858 ms, elapsed = 58.1958 ms.
Time accumulated: CPU = 832.299 ms, elapsed = 11.4027 s.
Peak resident memory used = 202 Mbytes.


Notice from spectre during hierarchy flattening.
    The value 'psf' specified for the 'checklimitdest' option will no longer be supported in future releases. Use 'spectre -h' to see other recommended values for the 'checklimitdest' option.



Warning from spectre during hierarchy flattening.
    WARNING (SPECTRE-8527): There are some nodes and instances removed from the netlist topology check. Check the circuit and correct the topology. Or use preserve_inst to keep them if necessary.

***********************************************
  Total removed instances 2 ( dangling 2, terminals connected together 0)  

Warning from spectre during hierarchy flattening.
    WARNING (SPECTRE-8529): Dangling instance. V4 is removed.
    WARNING (SPECTRE-8528): The NM0.msky130_fd_pr__nfet_01v8 device is removed because its terminals are connected together. Check the device in the netlist file to ensure that this warning can be ignored.


  Total removed nodes 5 ( dangling nodes 5, floating nodes 0 )

Warning from spectre during hierarchy flattening.
    WARNING (SPECTRE-8530): Dangling node. net4 is removed.
    WARNING (SPECTRE-8530): Dangling node. net2 is removed.
    WARNING (SPECTRE-8530): Dangling node. net1 is removed.
    WARNING (SPECTRE-8530): Dangling node. net3 is removed.
    WARNING (SPECTRE-8530): Dangling node. VDDD_IDEAL is removed.
        Further occurrences of this warning will be suppressed.

***********************************************
Time for EDB Visiting: CPU = 15.836 ms, elapsed = 15.938 ms.
Time accumulated: CPU = 848.212 ms, elapsed = 11.4187 s.
Peak resident memory used = 206 Mbytes.


Notice from spectre during topology check.
    Only one connection to the following 19 nodes:
        VPTAT
        B<3>
        B<1>
        B<0>
        B<2>
        Further occurrences of this notice will be suppressed.
Warning from spectre during heuristic topology check - set topcheck=fixall to fix all floating nodes.
    WARNING (SPECTRE-7): No DC path from node `VPTAT' to ground.
    WARNING (SPECTRE-7): No DC path from node `X_STUDENT.MUX_OUT' to ground.
    WARNING (SPECTRE-7): No DC path from node `X_STUDENT.X_ADC.VDAC' to ground.
    WARNING (SPECTRE-7): No DC path from node `X_STUDENT.X_ADC.X_CAPDAC.BOT<7>' to ground.
    WARNING (SPECTRE-7): No DC path from node `X_STUDENT.X_ADC.X_CAPDAC.BOT<6>' to ground.
        Further occurrences of this warning will be suppressed.
Notice from spectre during initial setup.
    Number of thread was limited because of small circuit size.


Global user options:
            vabstol = 1e-06
            iabstol = 1e-12
               temp = 27
         compatible = spice2
               gmin = 1e-12
             rforce = 1
           maxnotes = 5
           maxwarns = 5
             digits = 5
               cols = 80
             pivrel = 0.001
           sensfile = ../psf/sens.output
     checklimitdest = psf
               save = selected
           currents = selected
             reltol = 0.001
               tnom = 27
             scalem = 1
              scale = 1

Scoped user options:

Circuit inventory:
              nodes 673
              bsim4 1059  
          capacitor 21    
            isource 1     
              relay 69    
           resistor 3     
               vcvs 27    
            vsource 8     

Analysis and control statement inventory:
               info 4     
               tran 1     

Output statements:
             .probe 0     
           .measure 0     
               save 1     


Notice from spectre during initial setup.
    2 resistors are changed to resistance form because their value are less than 'rthresh'.
    APS enabled.
    1 notice suppressed.
    37 warnings suppressed.

Licensing Information:
[16:04:16.218035] Periodic Lic check successful


Notice from spectre.
    Multithreading enabled: 4 threads in the system with 96 available processors.

Time for parsing: CPU = 120.55 ms, elapsed = 61.336 ms.
Time accumulated: CPU = 968.826 ms, elapsed = 11.4801 s.
Peak resident memory used = 215 Mbytes.

~~~~~~~~~~~~~~~~~~~~~~
Pre-Simulation Summary
~~~~~~~~~~~~~~~~~~~~~~
   -   (APS) Multi-threading. The recommended number of threads is 2, consider adding +mt=2 on command line.
~~~~~~~~~~~~~~~~~~~~~~

************************************************
Transient Analysis `tran': time = (0 s -> 20 us)
************************************************
DC simulation time: CPU = 43.54 ms, elapsed = 10.9351 ms.

Opening the SST2 file ../psf/tran.tran.trn ...
Important parameter values:
    start = 0 s
    outputstart = 0 s
    stop = 20 us
    step = 20 ns
    maxstep = 200 ns
    ic = all
    useprevic = no
    skipdc = no
    reltol = 100e-06
    abstol(V) = 1 uV
    abstol(I) = 1 pA
    temp = 27 C
    tnom = 27 C
    tempeffects = all
    errpreset = conservative
    method = gear2only
    lteratio = 10
    relref = alllocal
    cmin = 0 F
    gmin = 1 pS
    rabsshort = 1 mOhm


Output and IC/nodeset summary:
                 save   31      (voltage)

    tran: time = 510 ns      (2.55 %), step = 14.52 ns    (72.6 m%)
    tran: time = 1.51 us     (7.55 %), step = 30 ns        (150 m%)
    tran: time = 2.51 us     (12.5 %), step = 30 ns        (150 m%)
    tran: time = 3.51 us     (17.5 %), step = 30 ns        (150 m%)
    tran: time = 4.51 us     (22.5 %), step = 30 ns        (150 m%)
    tran: time = 5.51 us     (27.5 %), step = 30 ns        (150 m%)
    tran: time = 6.51 us     (32.5 %), step = 30 ns        (150 m%)
    tran: time = 7.51 us     (37.5 %), step = 30 ns        (150 m%)
    tran: time = 8.51 us     (42.5 %), step = 30 ns        (150 m%)
    tran: time = 9.51 us     (47.5 %), step = 30 ns        (150 m%)
    tran: time = 10.51 us    (52.5 %), step = 30 ns        (150 m%)
    tran: time = 11.51 us    (57.5 %), step = 30 ns        (150 m%)
    tran: time = 12.51 us    (62.5 %), step = 30 ns        (150 m%)
    tran: time = 13.51 us    (67.5 %), step = 30 ns        (150 m%)
    tran: time = 14.51 us    (72.5 %), step = 30 ns        (150 m%)
    tran: time = 15.51 us    (77.5 %), step = 10.02 ns    (50.1 m%)
    tran: time = 16.51 us    (82.5 %), step = 10.02 ns    (50.1 m%)
    tran: time = 17.51 us    (87.5 %), step = 10.02 ns    (50.1 m%)
    tran: time = 18.51 us    (92.5 %), step = 10.02 ns    (50.1 m%)
    tran: time = 19.51 us    (97.5 %), step = 10.02 ns    (50.1 m%)
Number of accepted tran steps =             15037

Maximum value achieved for any signal of each quantity: 
V: V(net8) = 3.2 V
I: I(X_STUDENT.X_ADC.X_COMP.E0:p) = 3.902 A

~~~~~~~~~~~~~~~~~~~~~~~~~~~~~~~~~
Post-Transient Simulation Summary
~~~~~~~~~~~~~~~~~~~~~~~~~~~~~~~~~
   -   To further speed up simulation, consider
          add ++aps on command line
   -   Non-default settings that could significantly slow down simulation
          errpreset = conservative, default moderate
~~~~~~~~~~~~~~~~~~~~~~~~~~~~~~~~~


During simulation, the CPU load for active processors is :
         0 (2.8 %)       1 (29.6 %)      2 (1.1 %)       3 (1.2 %)
         6 (1.1 %)      11 (31.3 %)     15 (1.3 %)      20 (1.4 %)
        21 (1.6 %)      22 (2.0 %)      33 (1.7 %)      34 (1.0 %)
        43 (1.0 %)      49 (5.2 %)      67 (1.2 %)      81 (30.7 %)
        87 (32.1 %)     
        Total: 181.8%
Initial condition solution time: CPU = 43.742 ms, elapsed = 10.9839 ms.
Intrinsic tran analysis time:    CPU = 20.6017 s, elapsed = 5.13121 s.
Total time required for tran analysis `tran': CPU = 20.6686 s, elapsed = 5.14907 s, util. = 401%.
Time accumulated: CPU = 21.7058 s, elapsed = 16.6476 s.
Peak resident memory used = 228 Mbytes.

finalTimeOP: writing operating point information to rawfile.

Opening the PSF file ../psf/finalTimeOP.info ...
modelParameter: writing model parameter values to rawfile.

Opening the PSF file ../psf/modelParameter.info ...
element: writing instance parameter values to rawfile.

Opening the PSF file ../psf/element.info ...
outputParameter: writing output parameter values to rawfile.

Opening the PSF file ../psf/outputParameter.info ...
Licensing Information:
Lic Summary:
[16:04:21.448618] Cdslmd servers:5280@license-srv.eecs.berkeley.edu:5280@bisc.EECS.Berkeley.EDU
[16:04:21.448641] Feature usage summary:
[16:04:21.448641] Virtuoso_Multi_mode_Simulation


Aggregate audit (4:04:21 PM, Sun Apr 20, 2025):
Time used: CPU = 21.9 s, elapsed = 16.7 s, util. = 131%.
Time spent in licensing: elapsed = 10.1 s, percentage of total = 60.3%.
Peak memory used = 228 Mbytes.
Simulation started at: 4:04:05 PM, Sun Apr 20, 2025, ended at: 4:04:21 PM, Sun Apr 20, 2025, with elapsed time (wall clock): 16.7 s.
spectre completes with 0 errors, 15 warnings, and 8 notices.
