
Spectre (R) Circuit Simulator
Version 21.1.0.751.isr19 64bit -- 22 May 2023
Copyright (C) 1989-2023 Cadence Design Systems, Inc. All rights reserved worldwide. Cadence and Spectre are registered trademarks of Cadence Design Systems, Inc. All others are the property of their respective holders.

Includes RSA BSAFE(R) Cryptographic or Security Protocol Software from RSA Security, Inc.

User: ee140-aax   Host: eda-3.EECS.Berkeley.EDU   HostID: 2080922A   PID: 640655
Memory  available: 624.8248 GB  physical: 810.7774 GB
Linux   : Red Hat Enterprise Linux release 8.10 (Ootpa)
CPU Type: AMD EPYC 9454 48-Core Processor
        Socket: Processors [Frequency] (Hyperthreaded Processor)
        0:       0 [1915.0] (),  1 [3799.9] (),  2 [2100.0] (),  3 [1500.0] (),  4 [1500.0] ()
                 5 [2281.9] (),  6 [1500.0] (),  7 [3799.9] (),  8 [1500.0] (),  9 [1500.0] ()
                10 [1500.0] (), 11 [1500.0] (), 12 [1500.0] (), 13 [1500.0] (), 14 [1500.0] ()
                15 [1500.0] (), 16 [3319.0] (), 17 [1500.0] (), 18 [3799.9] (), 19 [1519.7] ()
                20 [1500.0] (), 21 [1500.0] (), 22 [1500.0] (), 23 [1500.0] (), 24 [1500.0] ()
                25 [1500.0] (), 26 [1500.0] (), 27 [1500.0] (), 28 [1500.0] (), 29 [2100.0] ()
                30 [1500.0] (), 31 [1500.0] (), 32 [1500.0] (), 33 [1500.0] (), 34 [1500.0] ()
                35 [1500.0] (), 36 [3452.9] (), 37 [3799.9] (), 38 [1500.0] (), 39 [1500.0] ()
                40 [1500.0] (), 41 [1500.0] (), 42 [1500.0] (), 43 [1500.0] (), 44 [1500.0] ()
                45 [1500.0] (), 46 [1500.0] (), 47 [1500.0] (), 48 [1500.0] (), 49 [1500.0] ()
                50 [1500.0] (), 51 [1500.0] (), 52 [3646.3] (), 53 [2588.0] (), 54 [2100.0] ()
                55 [1500.0] (), 56 [1519.9] (), 57 [1500.0] (), 58 [1500.0] (), 59 [1500.0] ()
                60 [1500.0] (), 61 [2834.7] (), 62 [2750.0] (), 63 [3799.9] (), 64 [1500.0] ()
                65 [1500.0] (), 66 [1500.0] (), 67 [1500.0] (), 68 [1518.7] (), 69 [2412.2] ()
                70 [3799.9] (), 71 [2100.0] (), 72 [3799.9] (), 73 [1500.0] (), 74 [2100.0] ()
                75 [1500.0] (), 76 [3306.5] (), 77 [3654.1] (), 78 [3669.7] (), 79 [3546.1] ()
                80 [1500.0] (), 81 [1500.0] (), 82 [3799.9] (), 83 [3799.9] (), 84 [1500.0] ()
                85 [1500.0] (), 86 [2472.2] (), 87 [1500.0] (), 88 [3664.3] (), 89 [1500.0] ()
                90 [1500.0] (), 91 [1500.0] (), 92 [3799.9] (), 93 [1500.0] (), 94 [1500.0] ()
                95 [3799.9] ()
        
System load averages (1min, 5min, 15min) : 16.9 %, 15.2 %, 14.7 %
Hyperthreading is enabled
HPC is enabled


Simulating `input.scs' on eda-3.EECS.Berkeley.EDU at 8:05:03 PM, Tue May 6, 2025 (process id: 640655).
Current working directory: /home/cc/ee140/sp25/class/ee140-aax/cadence_finalproj/Sim/Final-BGR-adcref/spectre/schematic/netlist
Environment variable:
    SPECTRE_DEFAULTS=-E
Command line:
    /share/instsww/cadence/SPECTRE211/tools/bin/spectre -64 input.scs  \
        +escchars +log ../psf/spectre.out -format psfxl -raw ../psf  \
        +aps +mt +lqtimeout 900 -maxw 5 -maxn 5 -env ade  \
        +adespetkn=adespe

Licensing Information:
[20:05:04.062298] Configured Lic search path (21.01-s002): 5280@license-srv.eecs.berkeley.edu:5280@bisc.EECS.Berkeley.EDU

Licensing Information:
[20:05:14.149977] Periodic Lic check successful

Loading /share/instsww/cadence/SPECTRE211/tools.lnx86/cmi/lib/64bit/5.0/libinfineon_sh.so ...
Loading /share/instsww/cadence/SPECTRE211/tools.lnx86/cmi/lib/64bit/5.0/libphilips_o_sh.so ...
Loading /share/instsww/cadence/SPECTRE211/tools.lnx86/cmi/lib/64bit/5.0/libphilips_sh.so ...
Loading /share/instsww/cadence/SPECTRE211/tools.lnx86/cmi/lib/64bit/5.0/libsparam_sh.so ...
Loading /share/instsww/cadence/SPECTRE211/tools.lnx86/cmi/lib/64bit/5.0/libstmodels_sh.so ...
Reading file:  /home/cc/ee140/sp25/class/ee140-aax/cadence_finalproj/Sim/Final-BGR-adcref/spectre/schematic/netlist/input.scs
Reading link:  /share/instsww/cadence/SPECTRE211
Reading file:  /share/instsww/cadence/SPECTRE.21.10.751/tools.lnx86/spectre/etc/configs/spectre.cfg
Reading file:  /usr/include/stdc-predef.h
Reading file:  /home/cc/ee140/sp25/class/ee140-aax/cadence_finalproj/sky130_release_0.0.4/models/sky130.lib.spice
Reading file:  /home/cc/ee140/sp25/class/ee140-aax/cadence_finalproj/sky130_release_0.0.4/cells/nfet_01v8/sky130_fd_pr__nfet_01v8__tt.corner.spice
Reading file:  /home/cc/ee140/sp25/class/ee140-aax/cadence_finalproj/sky130_release_0.0.4/cells/nfet_01v8/sky130_fd_pr__nfet_01v8__tt.pm3.spice
Reading file:  /home/cc/ee140/sp25/class/ee140-aax/cadence_finalproj/sky130_release_0.0.4/cells/nfet_01v8_lvt/sky130_fd_pr__nfet_01v8_lvt__tt.corner.spice
Reading file:  /home/cc/ee140/sp25/class/ee140-aax/cadence_finalproj/sky130_release_0.0.4/cells/nfet_01v8_lvt/sky130_fd_pr__nfet_01v8_lvt__tt.pm3.spice
Reading file:  /home/cc/ee140/sp25/class/ee140-aax/cadence_finalproj/sky130_release_0.0.4/cells/pfet_01v8/sky130_fd_pr__pfet_01v8__tt.corner.spice
Reading file:  /home/cc/ee140/sp25/class/ee140-aax/cadence_finalproj/sky130_release_0.0.4/cells/pfet_01v8/sky130_fd_pr__pfet_01v8__tt.pm3.spice
Reading file:  /home/cc/ee140/sp25/class/ee140-aax/cadence_finalproj/sky130_release_0.0.4/cells/nfet_03v3_nvt/sky130_fd_pr__nfet_03v3_nvt__tt.corner.spice
Reading file:  /home/cc/ee140/sp25/class/ee140-aax/cadence_finalproj/sky130_release_0.0.4/cells/nfet_03v3_nvt/sky130_fd_pr__nfet_03v3_nvt.pm3.spice
Reading file:  /home/cc/ee140/sp25/class/ee140-aax/cadence_finalproj/sky130_release_0.0.4/cells/nfet_05v0_nvt/sky130_fd_pr__nfet_05v0_nvt__tt.corner.spice
Reading file:  /home/cc/ee140/sp25/class/ee140-aax/cadence_finalproj/sky130_release_0.0.4/cells/nfet_05v0_nvt/sky130_fd_pr__nfet_05v0_nvt.pm3.spice
Reading file:  /home/cc/ee140/sp25/class/ee140-aax/cadence_finalproj/sky130_release_0.0.4/cells/esd_nfet_01v8/sky130_fd_pr__esd_nfet_01v8__tt.corner.spice
Reading file:  /home/cc/ee140/sp25/class/ee140-aax/cadence_finalproj/sky130_release_0.0.4/cells/esd_nfet_01v8/sky130_fd_pr__esd_nfet_01v8.pm3.spice
Reading file:  /home/cc/ee140/sp25/class/ee140-aax/cadence_finalproj/sky130_release_0.0.4/cells/pfet_01v8_lvt/sky130_fd_pr__pfet_01v8_lvt__tt.corner.spice
Reading file:  /home/cc/ee140/sp25/class/ee140-aax/cadence_finalproj/sky130_release_0.0.4/cells/pfet_01v8_lvt/sky130_fd_pr__pfet_01v8_lvt__tt.pm3.spice
Reading file:  /home/cc/ee140/sp25/class/ee140-aax/cadence_finalproj/sky130_release_0.0.4/cells/pfet_01v8_hvt/sky130_fd_pr__pfet_01v8_hvt__tt.corner.spice
Reading file:  /home/cc/ee140/sp25/class/ee140-aax/cadence_finalproj/sky130_release_0.0.4/cells/pfet_01v8_hvt/sky130_fd_pr__pfet_01v8_hvt__tt.pm3.spice
Reading file:  /home/cc/ee140/sp25/class/ee140-aax/cadence_finalproj/sky130_release_0.0.4/cells/esd_pfet_g5v0d10v5/sky130_fd_pr__esd_pfet_g5v0d10v5__tt.corner.spice
Reading file:  /home/cc/ee140/sp25/class/ee140-aax/cadence_finalproj/sky130_release_0.0.4/cells/esd_pfet_g5v0d10v5/sky130_fd_pr__esd_pfet_g5v0d10v5.pm3.spice
Reading file:  /home/cc/ee140/sp25/class/ee140-aax/cadence_finalproj/sky130_release_0.0.4/cells/pfet_g5v0d10v5/sky130_fd_pr__pfet_g5v0d10v5__tt.corner.spice
Reading file:  /home/cc/ee140/sp25/class/ee140-aax/cadence_finalproj/sky130_release_0.0.4/cells/pfet_g5v0d10v5/sky130_fd_pr__pfet_g5v0d10v5__tt.pm3.spice
Reading file:  /home/cc/ee140/sp25/class/ee140-aax/cadence_finalproj/sky130_release_0.0.4/cells/pfet_g5v0d16v0/sky130_fd_pr__pfet_g5v0d16v0__tt.corner.spice
Reading file:  /home/cc/ee140/sp25/class/ee140-aax/cadence_finalproj/sky130_release_0.0.4/cells/nfet_g5v0d10v5/sky130_fd_pr__nfet_g5v0d10v5__tt.corner.spice
Reading file:  /home/cc/ee140/sp25/class/ee140-aax/cadence_finalproj/sky130_release_0.0.4/cells/nfet_g5v0d10v5/sky130_fd_pr__nfet_g5v0d10v5__tt.pm3.spice
Reading file:  /home/cc/ee140/sp25/class/ee140-aax/cadence_finalproj/sky130_release_0.0.4/cells/nfet_g5v0d16v0/sky130_fd_pr__nfet_g5v0d16v0__tt_discrete.corner.spice
Reading file:  /home/cc/ee140/sp25/class/ee140-aax/cadence_finalproj/sky130_release_0.0.4/cells/nfet_g5v0d16v0/sky130_fd_pr__nfet_g5v0d16v0__subcircuit.pm3.spice
Reading file:  /home/cc/ee140/sp25/class/ee140-aax/cadence_finalproj/sky130_release_0.0.4/cells/nfet_g5v0d16v0/sky130_fd_pr__nfet_g5v0d16v0.pm3.spice
Reading file:  /home/cc/ee140/sp25/class/ee140-aax/cadence_finalproj/sky130_release_0.0.4/cells/esd_nfet_g5v0d10v5/sky130_fd_pr__esd_nfet_g5v0d10v5__tt.corner.spice
Reading file:  /home/cc/ee140/sp25/class/ee140-aax/cadence_finalproj/sky130_release_0.0.4/cells/esd_nfet_g5v0d10v5/sky130_fd_pr__esd_nfet_g5v0d10v5.pm3.spice
Reading file:  /home/cc/ee140/sp25/class/ee140-aax/cadence_finalproj/sky130_release_0.0.4/models/corners/tt/nonfet.spice
Reading file:  /home/cc/ee140/sp25/class/ee140-aax/cadence_finalproj/sky130_release_0.0.4/cells/nfet_01v8/sky130_fd_pr__nfet_01v8__mismatch.corner.spice
Reading file:  /home/cc/ee140/sp25/class/ee140-aax/cadence_finalproj/sky130_release_0.0.4/cells/pfet_01v8/sky130_fd_pr__pfet_01v8__mismatch.corner.spice
Reading file:  /home/cc/ee140/sp25/class/ee140-aax/cadence_finalproj/sky130_release_0.0.4/cells/nfet_01v8_lvt/sky130_fd_pr__nfet_01v8_lvt__mismatch.corner.spice
Reading file:  /home/cc/ee140/sp25/class/ee140-aax/cadence_finalproj/sky130_release_0.0.4/cells/pfet_01v8_lvt/sky130_fd_pr__pfet_01v8_lvt__mismatch.corner.spice
Reading file:  /home/cc/ee140/sp25/class/ee140-aax/cadence_finalproj/sky130_release_0.0.4/cells/pfet_01v8_hvt/sky130_fd_pr__pfet_01v8_hvt__mismatch.corner.spice
Reading file:  /home/cc/ee140/sp25/class/ee140-aax/cadence_finalproj/sky130_release_0.0.4/cells/nfet_g5v0d10v5/sky130_fd_pr__nfet_g5v0d10v5__mismatch.corner.spice
Reading file:  /home/cc/ee140/sp25/class/ee140-aax/cadence_finalproj/sky130_release_0.0.4/cells/pfet_g5v0d10v5/sky130_fd_pr__pfet_g5v0d10v5__mismatch.corner.spice
Reading file:  /home/cc/ee140/sp25/class/ee140-aax/cadence_finalproj/sky130_release_0.0.4/cells/nfet_05v0_nvt/sky130_fd_pr__nfet_05v0_nvt__mismatch.corner.spice
Reading file:  /home/cc/ee140/sp25/class/ee140-aax/cadence_finalproj/sky130_release_0.0.4/cells/nfet_03v3_nvt/sky130_fd_pr__nfet_03v3_nvt__mismatch.corner.spice
Reading file:  /home/cc/ee140/sp25/class/ee140-aax/cadence_finalproj/sky130_release_0.0.4/models/r+c/res_typical__cap_typical.spice
Reading file:  /home/cc/ee140/sp25/class/ee140-aax/cadence_finalproj/sky130_release_0.0.4/models/sky130_fd_pr__model__r+c.model.spice
Reading file:  /home/cc/ee140/sp25/class/ee140-aax/cadence_finalproj/sky130_release_0.0.4/models/r+c.mrp1monte.spice
Reading file:  /home/cc/ee140/sp25/class/ee140-aax/cadence_finalproj/sky130_release_0.0.4/cells/res_generic_nd/sky130_fd_pr__res_generic_nd.model.spice
Reading file:  /home/cc/ee140/sp25/class/ee140-aax/cadence_finalproj/sky130_release_0.0.4/cells/res_generic_pd/sky130_fd_pr__res_generic_pd.model.spice
Reading file:  /home/cc/ee140/sp25/class/ee140-aax/cadence_finalproj/sky130_release_0.0.4/models/parameters/typical.spice
Reading file:  /home/cc/ee140/sp25/class/ee140-aax/cadence_finalproj/sky130_release_0.0.4/models/r+c/res_typical__cap_typical__lin.spice
Reading file:  /home/cc/ee140/sp25/class/ee140-aax/cadence_finalproj/sky130_release_0.0.4/models/capacitors/sky130_fd_pr__model__cap_vpp.model.spice
Reading file:  /home/cc/ee140/sp25/class/ee140-aax/cadence_finalproj/sky130_release_0.0.4/cells/cap_vpp_08p6x07p8_l1m1m2_noshield/sky130_fd_pr__cap_vpp_08p6x07p8_l1m1m2_noshield.model.spice
Reading file:  /home/cc/ee140/sp25/class/ee140-aax/cadence_finalproj/sky130_release_0.0.4/cells/cap_vpp_04p4x04p6_l1m1m2_noshield/sky130_fd_pr__cap_vpp_04p4x04p6_l1m1m2_noshield.model.spice
Reading file:  /home/cc/ee140/sp25/class/ee140-aax/cadence_finalproj/sky130_release_0.0.4/cells/cap_vpp_11p5x11p7_l1m1m2_noshield/sky130_fd_pr__cap_vpp_11p5x11p7_l1m1m2_noshield.model.spice
Reading file:  /home/cc/ee140/sp25/class/ee140-aax/cadence_finalproj/sky130_release_0.0.4/cells/cap_vpp_01p8x01p8_m1m2_noshield/sky130_fd_pr__cap_vpp_01p8x01p8_m1m2_noshield.model.spice
Reading file:  /home/cc/ee140/sp25/class/ee140-aax/cadence_finalproj/sky130_release_0.0.4/cells/cap_vpp_08p6x07p8_m1m2_shieldl1/sky130_fd_pr__cap_vpp_08p6x07p8_m1m2_shieldl1.model.spice
Reading file:  /home/cc/ee140/sp25/class/ee140-aax/cadence_finalproj/sky130_release_0.0.4/cells/cap_vpp_04p4x04p6_m1m2_shieldl1/sky130_fd_pr__cap_vpp_04p4x04p6_m1m2_shieldl1.model.spice
Reading file:  /home/cc/ee140/sp25/class/ee140-aax/cadence_finalproj/sky130_release_0.0.4/cells/cap_vpp_11p5x11p7_m1m2_shieldl1/sky130_fd_pr__cap_vpp_11p5x11p7_m1m2_shieldl1.model.spice
Reading file:  /home/cc/ee140/sp25/class/ee140-aax/cadence_finalproj/sky130_release_0.0.4/cells/cap_vpp_08p6x07p8_l1m1m2_shieldpo_floatm3/sky130_fd_pr__cap_vpp_08p6x07p8_l1m1m2_shieldpo_floatm3.model.spice
Reading file:  /home/cc/ee140/sp25/class/ee140-aax/cadence_finalproj/sky130_release_0.0.4/cells/cap_vpp_04p4x04p6_l1m1m2_shieldpo_floatm3/sky130_fd_pr__cap_vpp_04p4x04p6_l1m1m2_shieldpo_floatm3.model.spice
Reading file:  /home/cc/ee140/sp25/class/ee140-aax/cadence_finalproj/sky130_release_0.0.4/cells/cap_vpp_11p5x11p7_l1m1m2_shieldpom3/sky130_fd_pr__cap_vpp_11p5x11p7_l1m1m2_shieldpom3.model.spice
Reading file:  /home/cc/ee140/sp25/class/ee140-aax/cadence_finalproj/sky130_release_0.0.4/cells/cap_vpp_03p9x03p9_m1m2_shieldl1_floatm3/sky130_fd_pr__cap_vpp_03p9x03p9_m1m2_shieldl1_floatm3.model.spice
Reading file:  /home/cc/ee140/sp25/class/ee140-aax/cadence_finalproj/sky130_release_0.0.4/cells/cap_vpp_04p4x04p6_l1m1m2_noshield/sky130_fd_pr__cap_vpp_04p4x04p6_l1m1m2_noshield_o1.model.spice
Reading file:  /home/cc/ee140/sp25/class/ee140-aax/cadence_finalproj/sky130_release_0.0.4/cells/cap_vpp_08p6x07p8_m1m2_noshield/sky130_fd_pr__cap_vpp_08p6x07p8_m1m2_noshield.model.spice
Reading file:  /home/cc/ee140/sp25/class/ee140-aax/cadence_finalproj/sky130_release_0.0.4/cells/cap_vpp_04p4x04p6_m1m2_noshield/sky130_fd_pr__cap_vpp_04p4x04p6_m1m2_noshield_o2.model.spice
Reading file:  /home/cc/ee140/sp25/class/ee140-aax/cadence_finalproj/sky130_release_0.0.4/cells/cap_vpp_02p4x04p6_m1m2_noshield/sky130_fd_pr__cap_vpp_02p4x04p6_m1m2_noshield.model.spice
Reading file:  /home/cc/ee140/sp25/class/ee140-aax/cadence_finalproj/sky130_release_0.0.4/cells/cap_vpp_04p4x04p6_m1m2_noshield/sky130_fd_pr__cap_vpp_04p4x04p6_m1m2_noshield.model.spice
Reading file:  /home/cc/ee140/sp25/class/ee140-aax/cadence_finalproj/sky130_release_0.0.4/cells/cap_vpp_11p5x11p7_m1m2_noshield/sky130_fd_pr__cap_vpp_11p5x11p7_m1m2_noshield.model.spice
Reading file:  /home/cc/ee140/sp25/class/ee140-aax/cadence_finalproj/sky130_release_0.0.4/cells/npn_05v5/sky130_fd_pr__npn_05v5__t.corner.spice
Reading file:  /home/cc/ee140/sp25/class/ee140-aax/cadence_finalproj/sky130_release_0.0.4/cells/npn_05v5/sky130_fd_pr__npn_05v5_W1p00L1p00.model.spice
Reading file:  /home/cc/ee140/sp25/class/ee140-aax/cadence_finalproj/sky130_release_0.0.4/cells/npn_05v5/sky130_fd_pr__npn_05v5_W1p00L2p00.model.spice
Reading file:  /home/cc/ee140/sp25/class/ee140-aax/cadence_finalproj/sky130_release_0.0.4/cells/npn_11v0/sky130_fd_pr__npn_11v0_W1p00L1p00.model.spice
Reading file:  /home/cc/ee140/sp25/class/ee140-aax/cadence_finalproj/sky130_release_0.0.4/cells/pnp_05v5/sky130_fd_pr__pnp_05v5_W3p40L3p40.model.spice
Reading file:  /home/cc/ee140/sp25/class/ee140-aax/cadence_finalproj/sky130_release_0.0.4/models/corners/tt/specialized_cells.spice
Reading file:  /home/cc/ee140/sp25/class/ee140-aax/cadence_finalproj/sky130_release_0.0.4/cells/special_nfet_latch/sky130_fd_pr__special_nfet_latch__mismatch.corner.spice
Reading file:  /home/cc/ee140/sp25/class/ee140-aax/cadence_finalproj/sky130_release_0.0.4/cells/special_nfet_pass/sky130_fd_pr__special_nfet_pass__mismatch.corner.spice
Reading file:  /home/cc/ee140/sp25/class/ee140-aax/cadence_finalproj/sky130_release_0.0.4/cells/special_nfet_pass_flash/sky130_fd_pr__special_nfet_pass_flash__mismatch.corner.spice
Reading file:  /home/cc/ee140/sp25/class/ee140-aax/cadence_finalproj/sky130_release_0.0.4/cells/special_pfet_pass/sky130_fd_pr__special_pfet_pass__mismatch.corner.spice
Reading file:  /home/cc/ee140/sp25/class/ee140-aax/cadence_finalproj/sky130_release_0.0.4/cells/special_nfet_pass_lvt/sky130_fd_pr__special_nfet_pass_lvt__tt.corner.spice
Reading file:  /home/cc/ee140/sp25/class/ee140-aax/cadence_finalproj/sky130_release_0.0.4/cells/special_nfet_pass_lvt/sky130_fd_pr__special_nfet_pass_lvt.pm3.spice
Reading file:  /home/cc/ee140/sp25/class/ee140-aax/cadence_finalproj/sky130_release_0.0.4/models/all.spice
Reading file:  /home/cc/ee140/sp25/class/ee140-aax/cadence_finalproj/sky130_release_0.0.4/models/parameters/lod.spice
Reading file:  /home/cc/ee140/sp25/class/ee140-aax/cadence_finalproj/sky130_release_0.0.4/models/parasitics/sky130_fd_pr__model__parasitic__diode_ps2nw.model.spice
Reading file:  /home/cc/ee140/sp25/class/ee140-aax/cadence_finalproj/sky130_release_0.0.4/cells/diode_pw2nd_05v5/sky130_fd_pr__diode_pw2nd_05v5.model.spice
Reading file:  /home/cc/ee140/sp25/class/ee140-aax/cadence_finalproj/sky130_release_0.0.4/cells/diode_pd2nw_05v5/sky130_fd_pr__diode_pd2nw_05v5.model.spice
Reading file:  /home/cc/ee140/sp25/class/ee140-aax/cadence_finalproj/sky130_release_0.0.4/cells/diode_pd2nw_05v5_hvt/sky130_fd_pr__diode_pd2nw_05v5_hvt.model.spice
Reading file:  /home/cc/ee140/sp25/class/ee140-aax/cadence_finalproj/sky130_release_0.0.4/cells/diode_pw2nd_11v0/sky130_fd_pr__diode_pw2nd_11v0.model.spice
Reading file:  /home/cc/ee140/sp25/class/ee140-aax/cadence_finalproj/sky130_release_0.0.4/cells/diode_pd2nw_11v0/sky130_fd_pr__diode_pd2nw_11v0.model.spice
Reading file:  /home/cc/ee140/sp25/class/ee140-aax/cadence_finalproj/sky130_release_0.0.4/cells/diode_pw2nd_05v5_nvt/sky130_fd_pr__diode_pw2nd_05v5_nvt.model.spice
Reading file:  /home/cc/ee140/sp25/class/ee140-aax/cadence_finalproj/sky130_release_0.0.4/cells/diode_pw2nd_05v5_lvt/sky130_fd_pr__diode_pw2nd_05v5_lvt.model.spice
Reading file:  /home/cc/ee140/sp25/class/ee140-aax/cadence_finalproj/sky130_release_0.0.4/cells/diode_pd2nw_05v5_lvt/sky130_fd_pr__diode_pd2nw_05v5_lvt.model.spice
Reading file:  /home/cc/ee140/sp25/class/ee140-aax/cadence_finalproj/sky130_release_0.0.4/models/parasitics/sky130_fd_pr__model__parasitic__diode_pw2dn.model.spice
Reading file:  /home/cc/ee140/sp25/class/ee140-aax/cadence_finalproj/sky130_release_0.0.4/models/parasitics/sky130_fd_pr__model__parasitic__diode_ps2dn.model.spice
Reading file:  /home/cc/ee140/sp25/class/ee140-aax/cadence_finalproj/sky130_release_0.0.4/cells/pfet_g5v0d16v0/sky130_fd_pr__pfet_g5v0d16v0__parasitic__diode_pw2dn.model.spice
Reading file:  /home/cc/ee140/sp25/class/ee140-aax/cadence_finalproj/sky130_release_0.0.4/cells/pnp_05v5/sky130_fd_pr__pnp_05v5_W0p68L0p68.model.spice
Reading file:  /home/cc/ee140/sp25/class/ee140-aax/cadence_finalproj/sky130_release_0.0.4/cells/pfet_g5v0d16v0/sky130_fd_pr__pfet_g5v0d16v0.pm3.spice
Reading file:  /home/cc/ee140/sp25/class/ee140-aax/cadence_finalproj/sky130_release_0.0.4/cells/pfet_g5v0d16v0/sky130_fd_pr__pfet_g5v0d16v0__subcircuit.pm3.spice
Reading file:  /home/cc/ee140/sp25/class/ee140-aax/cadence_finalproj/sky130_release_0.0.4/cells/cap_var_lvt/sky130_fd_pr__cap_var_lvt.model.spice
Reading file:  /home/cc/ee140/sp25/class/ee140-aax/cadence_finalproj/sky130_release_0.0.4/cells/cap_vpp_08p6x07p8_l1m1m2_noshield/sky130_fd_pr__cap_vpp_08p6x07p8_l1m1m2_noshield_o1.model.spice
Reading file:  /home/cc/ee140/sp25/class/ee140-aax/cadence_finalproj/sky130_release_0.0.4/models/capacitors/sky130_fd_pr__model__cap_mim.model.spice
Reading file:  /home/cc/ee140/sp25/class/ee140-aax/cadence_finalproj/sky130_release_0.0.4/cells/cap_mim_m3/sky130_fd_pr__cap_mim_m3_1.model.spice
Reading file:  /home/cc/ee140/sp25/class/ee140-aax/cadence_finalproj/sky130_release_0.0.4/cells/cap_mim_m3/sky130_fd_pr__cap_mim_m3_2.model.spice
Reading file:  /home/cc/ee140/sp25/class/ee140-aax/cadence_finalproj/sky130_release_0.0.4/models/capacitors/sky130_fd_pr__model__cap_vpp_only_mos.model.spice
Reading file:  /home/cc/ee140/sp25/class/ee140-aax/cadence_finalproj/sky130_release_0.0.4/cells/cap_vpp_04p4x04p6_m1m2_noshield/sky130_fd_pr__cap_vpp_04p4x04p6_m1m2_noshield_o1nhv.model.spice
Reading file:  /home/cc/ee140/sp25/class/ee140-aax/cadence_finalproj/sky130_release_0.0.4/cells/cap_vpp_04p4x04p6_m1m2_noshield/sky130_fd_pr__cap_vpp_04p4x04p6_m1m2_noshield_o1phv.model.spice
Reading file:  /home/cc/ee140/sp25/class/ee140-aax/cadence_finalproj/sky130_release_0.0.4/models/sonos_p/begin_of_life/mm.spice
Reading file:  /home/cc/ee140/sp25/class/ee140-aax/cadence_finalproj/sky130_release_0.0.4/models/sonos_e/begin_of_life/mm.spice
Reading file:  /home/cc/ee140/sp25/class/ee140-aax/cadence_finalproj/sky130_release_0.0.4/models/head.spice
Reading file:  /home/cc/ee140/sp25/class/ee140-aax/cadence_finalproj/sky130_release_0.0.4/cells/special_nfet_pass/sky130_fd_pr__special_nfet_pass.pm3.spice
Reading file:  /home/cc/ee140/sp25/class/ee140-aax/cadence_finalproj/sky130_release_0.0.4/cells/special_nfet_latch/sky130_fd_pr__special_nfet_latch.pm3.spice
Reading file:  /home/cc/ee140/sp25/class/ee140-aax/cadence_finalproj/sky130_release_0.0.4/cells/special_pfet_pass/sky130_fd_pr__special_pfet_pass.pm3.spice
Reading file:  /home/cc/ee140/sp25/class/ee140-aax/cadence_finalproj/sky130_release_0.0.4/cells/special_nfet_pass_flash/sky130_fd_pr__special_nfet_pass_flash.pm3.spice
Reading file:  /home/cc/ee140/sp25/class/ee140-aax/cadence_finalproj/sky130_release_0.0.4/models/capacitors/sky130_fd_pr__model__cap_vpp_only_pq.model.spice
Reading file:  /home/cc/ee140/sp25/class/ee140-aax/cadence_finalproj/sky130_release_0.0.4/cells/cap_vpp_08p6x07p8_m1m2m3_shieldl1/sky130_fd_pr__cap_vpp_08p6x07p8_m1m2m3_shieldl1.model.spice
Reading file:  /home/cc/ee140/sp25/class/ee140-aax/cadence_finalproj/sky130_release_0.0.4/cells/cap_vpp_04p4x04p6_m1m2m3_shieldl1/sky130_fd_pr__cap_vpp_04p4x04p6_m1m2m3_shieldl1.model.spice
Reading file:  /home/cc/ee140/sp25/class/ee140-aax/cadence_finalproj/sky130_release_0.0.4/cells/cap_vpp_11p5x11p7_m1m2m3_shieldl1/sky130_fd_pr__cap_vpp_11p5x11p7_m1m2m3_shieldl1.model.spice
Reading file:  /home/cc/ee140/sp25/class/ee140-aax/cadence_finalproj/sky130_release_0.0.4/cells/cap_vpp_11p5x11p7_l1m1m2m3_shieldm4/sky130_fd_pr__cap_vpp_11p5x11p7_l1m1m2m3_shieldm4.model.spice
Reading file:  /home/cc/ee140/sp25/class/ee140-aax/cadence_finalproj/sky130_release_0.0.4/cells/cap_vpp_11p5x11p7_l1m1m2m3_shieldpom4/sky130_fd_pr__cap_vpp_11p5x11p7_l1m1m2m3_shieldpom4.model.spice
Reading file:  /home/cc/ee140/sp25/class/ee140-aax/cadence_finalproj/sky130_release_0.0.4/cells/cap_vpp_06p8x06p1_l1m1m2m3_shieldpom4/sky130_fd_pr__cap_vpp_06p8x06p1_l1m1m2m3_shieldpom4.model.spice
Reading file:  /home/cc/ee140/sp25/class/ee140-aax/cadence_finalproj/sky130_release_0.0.4/cells/cap_vpp_06p8x06p1_m1m2m3_shieldl1m4/sky130_fd_pr__cap_vpp_06p8x06p1_m1m2m3_shieldl1m4.model.spice
Reading file:  /home/cc/ee140/sp25/class/ee140-aax/cadence_finalproj/sky130_release_0.0.4/models/capacitors/sky130_fd_pr__model__cap_vpp_only_p.model.spice
Reading file:  /home/cc/ee140/sp25/class/ee140-aax/cadence_finalproj/sky130_release_0.0.4/cells/cap_vpp_11p5x11p7_l1m1m2m3m4_shieldm5/sky130_fd_pr__cap_vpp_11p5x11p7_l1m1m2m3m4_shieldm5.model.spice
Reading file:  /home/cc/ee140/sp25/class/ee140-aax/cadence_finalproj/sky130_release_0.0.4/cells/cap_vpp_11p5x11p7_l1m1m2m3m4_shieldpom5/sky130_fd_pr__cap_vpp_11p5x11p7_l1m1m2m3m4_shieldpom5.model.spice
Reading file:  /home/cc/ee140/sp25/class/ee140-aax/cadence_finalproj/sky130_release_0.0.4/cells/cap_vpp_11p5x11p7_m1m2m3m4_shieldl1m5/sky130_fd_pr__cap_vpp_11p5x11p7_m1m2m3m4_shieldl1m5.model.spice
Reading file:  /home/cc/ee140/sp25/class/ee140-aax/cadence_finalproj/sky130_release_0.0.4/cells/cap_vpp_11p5x11p7_m1m4_noshield/sky130_fd_pr__cap_vpp_11p5x11p7_m1m4_noshield.model.spice
Reading file:  /home/cc/ee140/sp25/class/ee140-aax/cadence_finalproj/sky130_release_0.0.4/cells/cap_vpp_11p5x11p7_m1m2m3m4_shieldm5/sky130_fd_pr__cap_vpp_11p5x11p7_m1m2m3m4_shieldm5.model.spice
Reading file:  /home/cc/ee140/sp25/class/ee140-aax/cadence_finalproj/sky130_release_0.0.4/cells/cap_vpp_08p6x07p8_m1m2m3_shieldl1m5_floatm4/sky130_fd_pr__cap_vpp_08p6x07p8_m1m2m3_shieldl1m5_floatm4.model.spice
Reading file:  /home/cc/ee140/sp25/class/ee140-aax/cadence_finalproj/sky130_release_0.0.4/cells/cap_vpp_04p4x04p6_m1m2m3_shieldl1m5_floatm4/sky130_fd_pr__cap_vpp_04p4x04p6_m1m2m3_shieldl1m5_floatm4.model.spice
Reading file:  /home/cc/ee140/sp25/class/ee140-aax/cadence_finalproj/sky130_release_0.0.4/cells/cap_vpp_11p5x11p7_m1m2m3_shieldl1m5_floatm4/sky130_fd_pr__cap_vpp_11p5x11p7_m1m2m3_shieldl1m5_floatm4.model.spice
Reading file:  /home/cc/ee140/sp25/class/ee140-aax/cadence_finalproj/sky130_release_0.0.4/cells/cap_vpp_11p3x11p8_l1m1m2m3m4_shieldm5/sky130_fd_pr__cap_vpp_11p3x11p8_l1m1m2m3m4_shieldm5_nhv.model.spice
Reading file:  /home/cc/ee140/sp25/class/ee140-aax/cadence_finalproj/sky130_release_0.0.4/cells/cap_vpp_11p3x11p8_l1m1m2m3m4_shieldm5/sky130_fd_pr__cap_vpp_11p3x11p8_l1m1m2m3m4_shieldm5_nhv__base.model.spice
Reading file:  /home/cc/ee140/sp25/class/ee140-aax/cadence_finalproj/sky130_release_0.0.4/cells/cap_vpp_11p5x11p7_l1m1m2m3m4_shieldpom5/sky130_fd_pr__cap_vpp_11p5x11p7_l1m1m2m3m4_shieldpom5_x.model.spice
Reading file:  /home/cc/ee140/sp25/class/ee140-aax/cadence_finalproj/sky130_release_0.0.4/cells/cap_vpp_02p9x06p1_m1m2m3m4_shieldl1/sky130_fd_pr__cap_vpp_02p9x06p1_m1m2m3m4_shieldl1_fingercap2.model.spice
Reading file:  /home/cc/ee140/sp25/class/ee140-aax/cadence_finalproj/sky130_release_0.0.4/cells/cap_vpp_02p7x11p1_m1m2m3m4_shieldl1/sky130_fd_pr__cap_vpp_02p7x11p1_m1m2m3m4_shieldl1_fingercap.model.spice
Reading file:  /home/cc/ee140/sp25/class/ee140-aax/cadence_finalproj/sky130_release_0.0.4/cells/cap_vpp_02p7x21p1_m1m2m3m4_shieldl1/sky130_fd_pr__cap_vpp_02p7x21p1_m1m2m3m4_shieldl1_fingercap.model.spice
Reading file:  /home/cc/ee140/sp25/class/ee140-aax/cadence_finalproj/sky130_release_0.0.4/cells/cap_vpp_02p7x41p1_m1m2m3m4_shieldl1/sky130_fd_pr__cap_vpp_02p7x41p1_m1m2m3m4_shieldl1_fingercap.model.spice
Reading file:  /home/cc/ee140/sp25/class/ee140-aax/cadence_finalproj/sky130_release_0.0.4/cells/cap_vpp_02p7x06p1_m1m2m3m4_shieldl1/sky130_fd_pr__cap_vpp_02p7x06p1_m1m2m3m4_shieldl1_fingercap.model.spice
Reading file:  /home/cc/ee140/sp25/class/ee140-aax/cadence_finalproj/sky130_release_0.0.4/cells/cap_vpp_11p3x11p3_m1m2m3m4_shieldl1/sky130_fd_pr__cap_vpp_11p3x11p3_m1m2m3m4_shieldl1_wafflecap.model.spice
Reading file:  /home/cc/ee140/sp25/class/ee140-aax/cadence_finalproj/sky130_release_0.0.4/cells/cap_vpp_05p9x05p9_m1m2m3m4_shieldl1/sky130_fd_pr__cap_vpp_05p9x05p9_m1m2m3m4_shieldl1_wafflecap.model.spice
Reading file:  /home/cc/ee140/sp25/class/ee140-aax/cadence_finalproj/sky130_release_0.0.4/cells/cap_vpp_44p7x23p1_pol1m1m2m3m4m5_noshield/sky130_fd_pr__cap_vpp_44p7x23p1_pol1m1m2m3m4m5_noshield.model.spice
Reading file:  /home/cc/ee140/sp25/class/ee140-aax/cadence_finalproj/sky130_release_0.0.4/models/sky130_fd_pr__model__linear.model.spice
Reading file:  /home/cc/ee140/sp25/class/ee140-aax/cadence_finalproj/sky130_release_0.0.4/models/parasitics/sky130_fd_pr__model__parasitic__res_po.model.spice
Reading file:  /home/cc/ee140/sp25/class/ee140-aax/cadence_finalproj/sky130_release_0.0.4/cells/res_xhigh_po/sky130_fd_pr__res_xhigh_po.model.spice
Reading file:  /home/cc/ee140/sp25/class/ee140-aax/cadence_finalproj/sky130_release_0.0.4/cells/res_high_po/sky130_fd_pr__res_high_po.model.spice
Reading file:  /home/cc/ee140/sp25/class/ee140-aax/cadence_finalproj/sky130_release_0.0.4/cells/res_xhigh_po/sky130_fd_pr__res_xhigh_po_0p35.model.spice
Reading file:  /home/cc/ee140/sp25/class/ee140-aax/cadence_finalproj/sky130_release_0.0.4/cells/res_xhigh_po/sky130_fd_pr__res_xhigh_po_0p69.model.spice
Reading file:  /home/cc/ee140/sp25/class/ee140-aax/cadence_finalproj/sky130_release_0.0.4/cells/res_xhigh_po/sky130_fd_pr__res_xhigh_po_1p41.model.spice
Reading file:  /home/cc/ee140/sp25/class/ee140-aax/cadence_finalproj/sky130_release_0.0.4/cells/res_xhigh_po/sky130_fd_pr__res_xhigh_po_2p85.model.spice
Reading file:  /home/cc/ee140/sp25/class/ee140-aax/cadence_finalproj/sky130_release_0.0.4/cells/res_xhigh_po/sky130_fd_pr__res_xhigh_po_5p73.model.spice
Reading file:  /home/cc/ee140/sp25/class/ee140-aax/cadence_finalproj/sky130_release_0.0.4/cells/res_xhigh_po/sky130_fd_pr__res_xhigh_po__base.model.spice
Reading file:  /home/cc/ee140/sp25/class/ee140-aax/cadence_finalproj/sky130_release_0.0.4/cells/res_high_po/sky130_fd_pr__res_high_po_0p35.model.spice
Reading file:  /home/cc/ee140/sp25/class/ee140-aax/cadence_finalproj/sky130_release_0.0.4/cells/res_high_po/sky130_fd_pr__res_high_po_0p69.model.spice
Reading file:  /home/cc/ee140/sp25/class/ee140-aax/cadence_finalproj/sky130_release_0.0.4/cells/res_high_po/sky130_fd_pr__res_high_po_1p41.model.spice
Reading file:  /home/cc/ee140/sp25/class/ee140-aax/cadence_finalproj/sky130_release_0.0.4/cells/res_high_po/sky130_fd_pr__res_high_po_2p85.model.spice
Reading file:  /home/cc/ee140/sp25/class/ee140-aax/cadence_finalproj/sky130_release_0.0.4/cells/res_high_po/sky130_fd_pr__res_high_po_5p73.model.spice
Reading file:  /home/cc/ee140/sp25/class/ee140-aax/cadence_finalproj/sky130_release_0.0.4/cells/rf_nfet_g5v0d10v5/sky130_fd_pr__rf_nfet_g5v0d10v5.pm3.spice
Reading file:  /home/cc/ee140/sp25/class/ee140-aax/cadence_finalproj/sky130_release_0.0.4/cells/rf_nfet_01v8_lvt/sky130_fd_pr__rf_nfet_01v8_lvt.pm3.spice
Reading file:  /home/cc/ee140/sp25/class/ee140-aax/cadence_finalproj/sky130_release_0.0.4/cells/rf_nfet_01v8/sky130_fd_pr__rf_nfet_01v8.pm3.spice
Reading file:  /home/cc/ee140/sp25/class/ee140-aax/cadence_finalproj/sky130_release_0.0.4/cells/rf_pfet_01v8/sky130_fd_pr__rf_pfet_01v8.pm3.spice
Reading file:  /home/cc/ee140/sp25/class/ee140-aax/cadence_finalproj/sky130_release_0.0.4/cells/rf_pfet_01v8_mvt/sky130_fd_pr__rf_pfet_01v8_mvt.pm3.spice
Reading file:  /home/cc/ee140/sp25/class/ee140-aax/cadence_finalproj/sky130_release_0.0.4/models/corners/tt/rf.spice
Reading file:  /home/cc/ee140/sp25/class/ee140-aax/cadence_finalproj/sky130_release_0.0.4/cells/rf_nfet_01v8/sky130_fd_pr__rf_nfet_01v8_b__tt.corner.spice
Reading file:  /home/cc/ee140/sp25/class/ee140-aax/cadence_finalproj/sky130_release_0.0.4/cells/rf_nfet_01v8/sky130_fd_pr__rf_nfet_01v8_b.pm3.spice
Reading file:  /home/cc/ee140/sp25/class/ee140-aax/cadence_finalproj/sky130_release_0.0.4/cells/rf_nfet_01v8_lvt/sky130_fd_pr__rf_nfet_01v8_lvt_b__tt.corner.spice
Reading file:  /home/cc/ee140/sp25/class/ee140-aax/cadence_finalproj/sky130_release_0.0.4/cells/rf_nfet_01v8_lvt/sky130_fd_pr__rf_nfet_01v8_lvt_b.pm3.spice
Reading file:  /home/cc/ee140/sp25/class/ee140-aax/cadence_finalproj/sky130_release_0.0.4/cells/rf_nfet_g5v0d10v5/sky130_fd_pr__rf_nfet_g5v0d10v5_b__tt.corner.spice
Reading file:  /home/cc/ee140/sp25/class/ee140-aax/cadence_finalproj/sky130_release_0.0.4/cells/rf_nfet_g5v0d10v5/sky130_fd_pr__rf_nfet_g5v0d10v5_b.pm3.spice
Reading file:  /home/cc/ee140/sp25/class/ee140-aax/cadence_finalproj/sky130_release_0.0.4/cells/rf_pfet_01v8/sky130_fd_pr__rf_pfet_01v8_b__tt.corner.spice
Reading file:  /home/cc/ee140/sp25/class/ee140-aax/cadence_finalproj/sky130_release_0.0.4/cells/rf_pfet_01v8/sky130_fd_pr__rf_pfet_01v8_b.pm3.spice
Reading file:  /home/cc/ee140/sp25/class/ee140-aax/cadence_finalproj/sky130_release_0.0.4/cells/rf_nfet_01v8/sky130_fd_pr__rf_nfet_01v8__mismatch.corner.spice
Reading file:  /home/cc/ee140/sp25/class/ee140-aax/cadence_finalproj/sky130_release_0.0.4/cells/rf_nfet_01v8_lvt/sky130_fd_pr__rf_nfet_01v8_lvt__mismatch.corner.spice
Reading file:  /home/cc/ee140/sp25/class/ee140-aax/cadence_finalproj/sky130_release_0.0.4/cells/rf_nfet_g5v0d10v5/sky130_fd_pr__rf_nfet_g5v0d10v5__mismatch.corner.spice
Reading file:  /home/cc/ee140/sp25/class/ee140-aax/cadence_finalproj/sky130_release_0.0.4/cells/rf_pfet_01v8/sky130_fd_pr__rf_pfet_01v8__mismatch.corner.spice
Reading file:  /home/cc/ee140/sp25/class/ee140-aax/cadence_finalproj/sky130_release_0.0.4/cells/rf_pfet_01v8_mvt/sky130_fd_pr__rf_pfet_01v8_mvt__tt_discrete.corner.spice
Reading file:  /home/cc/ee140/sp25/class/ee140-aax/cadence_finalproj/sky130_release_0.0.4/cells/pfet_01v8_mvt/sky130_fd_pr__pfet_01v8_mvt.pm3.spice
Reading file:  /home/cc/ee140/sp25/class/ee140-aax/cadence_finalproj/sky130_release_0.0.4/cells/rf_pfet_01v8_mvt/sky130_fd_pr__rf_pfet_01v8_mvt__mismatch.corner.spice
Reading file:  /home/cc/ee140/sp25/class/ee140-aax/cadence_finalproj/sky130_release_0.0.4/cells/pfet_20v0/sky130_fd_pr__pfet_20v0__tt_discrete.corner.spice
Reading file:  /home/cc/ee140/sp25/class/ee140-aax/cadence_finalproj/sky130_release_0.0.4/cells/pfet_20v0/sky130_fd_pr__pfet_20v0__subcircuit.pm3.spice
Reading file:  /home/cc/ee140/sp25/class/ee140-aax/cadence_finalproj/sky130_release_0.0.4/cells/pfet_20v0/sky130_fd_pr__pfet_20v0__parasitic__diode_pw2dn.model.spice
Reading file:  /home/cc/ee140/sp25/class/ee140-aax/cadence_finalproj/sky130_release_0.0.4/cells/nfet_20v0/sky130_fd_pr__nfet_20v0__tt_discrete.corner.spice
Reading file:  /home/cc/ee140/sp25/class/ee140-aax/cadence_finalproj/sky130_release_0.0.4/cells/nfet_20v0/sky130_fd_pr__nfet_20v0__subcircuit.pm3.spice
Reading file:  /home/cc/ee140/sp25/class/ee140-aax/cadence_finalproj/sky130_release_0.0.4/models/parasitics/sky130_fd_pr__model__parasitic__diode_pw2dn__extended_drain.model.spice
Reading file:  /home/cc/ee140/sp25/class/ee140-aax/cadence_finalproj/sky130_release_0.0.4/cells/diode_pw2nd_05v5/sky130_fd_pr__diode_pw2nd_05v5__extended_drain.model.spice
Reading file:  /home/cc/ee140/sp25/class/ee140-aax/cadence_finalproj/sky130_release_0.0.4/cells/nfet_20v0_iso/sky130_fd_pr__nfet_20v0_iso__subcircuit.pm3.spice
Reading file:  /home/cc/ee140/sp25/class/ee140-aax/cadence_finalproj/sky130_release_0.0.4/models/parasitics/sky130_fd_pr__model__parasitic__diode_ps2dn__extended_drain.model.spice
Reading file:  /home/cc/ee140/sp25/class/ee140-aax/cadence_finalproj/sky130_release_0.0.4/cells/nfet_20v0_reverse_iso/sky130_fd_pr__nfet_20v0_reverse_iso__subcircuit.pm3.spice
Reading file:  /home/cc/ee140/sp25/class/ee140-aax/cadence_finalproj/sky130_release_0.0.4/cells/nfet_20v0_zvt/sky130_fd_pr__nfet_20v0_zvt__tt_discrete.corner.spice
Reading file:  /home/cc/ee140/sp25/class/ee140-aax/cadence_finalproj/sky130_release_0.0.4/cells/nfet_20v0_zvt/sky130_fd_pr__nfet_20v0_zvt__subcircuit.pm3.spice
Reading file:  /home/cc/ee140/sp25/class/ee140-aax/cadence_finalproj/sky130_release_0.0.4/cells/nfet_20v0_zvt/sky130_fd_pr__nfet_20v0_zvt__parasitic__diode_ps2dn__extended_drain.model.spice
Reading file:  /home/cc/ee140/sp25/class/ee140-aax/cadence_finalproj/sky130_release_0.0.4/cells/nfet_20v0_nvt/sky130_fd_pr__nfet_20v0_nvt__tt_discrete.corner.spice
Reading file:  /home/cc/ee140/sp25/class/ee140-aax/cadence_finalproj/sky130_release_0.0.4/cells/nfet_20v0_nvt/sky130_fd_pr__nfet_20v0_nvt__subcircuit.pm3.spice
Reading file:  /home/cc/ee140/sp25/class/ee140-aax/cadence_finalproj/sky130_release_0.0.4/cells/nfet_20v0_nvt/sky130_fd_pr__nfet_20v0_nvt__parasitic__diode_ps2dn.model.spice
Time for NDB Parsing: CPU = 512.364 ms, elapsed = 10.9899 s.
Time accumulated: CPU = 624.565 ms, elapsed = 10.99 s.
Peak resident memory used = 167 Mbytes.

TCP: opening server port eda-3.EECS.Berkeley.EDU:39455
Time for Elaboration: CPU = 29.401 ms, elapsed = 31.3592 ms.
Time accumulated: CPU = 654.106 ms, elapsed = 11.0215 s.
Peak resident memory used = 179 Mbytes.


Notice from spectre during hierarchy flattening.
    The value 'psf' specified for the 'checklimitdest' option will no longer be supported in future releases. Use 'spectre -h' to see other recommended values for the 'checklimitdest' option.



Warning from spectre during hierarchy flattening.
    WARNING (SPECTRE-8527): There are some nodes and instances removed from the netlist topology check. Check the circuit and correct the topology. Or use preserve_inst to keep them if necessary.

***********************************************
  Total removed instances 4 ( dangling 4, terminals connected together 0)  

Warning from spectre during hierarchy flattening.
    WARNING (SPECTRE-8529): Dangling instance. R3 is removed.
    WARNING (SPECTRE-8529): Dangling instance. R5 is removed.
    WARNING (SPECTRE-8529): Dangling instance. R4 is removed.
    WARNING (SPECTRE-8528): The PM7.msky130_fd_pr__pfet_g5v0d10v5 device is removed because its terminals are connected together. Check the device in the netlist file to ensure that this warning can be ignored.


  Total removed nodes 7 ( dangling nodes 7, floating nodes 0 )

Warning from spectre during hierarchy flattening.
    WARNING (SPECTRE-8530): Dangling node. VPTAT is removed.
    WARNING (SPECTRE-8530): Dangling node. net76 is removed.
    WARNING (SPECTRE-8530): Dangling node. net68 is removed.
    WARNING (SPECTRE-8530): Dangling node. net67 is removed.
    WARNING (SPECTRE-8530): Dangling node. net50 is removed.
        Further occurrences of this warning will be suppressed.

***********************************************
Time for EDB Visiting: CPU = 1.215 ms, elapsed = 1.22404 ms.
Time accumulated: CPU = 655.409 ms, elapsed = 11.0228 s.
Peak resident memory used = 181 Mbytes.


Notice from spectre during initial setup.
    Multithreading is disabled due to the size of the design being too small.


Global user options:
         psfversion = 1.4.0
            vabstol = 1e-06
            iabstol = 1e-12
               temp = 70
           homotopy = 5
              limit = delta
         compatible = spice2
               gmin = 1e-12
             rforce = 1
           maxnotes = 5
           maxwarns = 5
             digits = 5
               cols = 80
             pivrel = 0.001
           sensfile = ../psf/sens.output
     checklimitdest = psf
               save = allpub
             reltol = 0.0001
               tnom = 27
             scalem = 1
              scale = 1

Scoped user options:

Circuit inventory:
              nodes 35
              bsim4 36    
          capacitor 1     
           resistor 11    
            vsource 2     

Analysis and control statement inventory:
               info 7     
               tran 1     

Output statements:
             .probe 0     
           .measure 0     
               save 0     


Notice from spectre during initial setup.
    1 vsources are shorted because their absolute value is less than or equal to 'vabsshort'.
    APS enabled.
    2 warnings suppressed.

Time for parsing: CPU = 2.777 ms, elapsed = 5.22709 ms.
Time accumulated: CPU = 658.258 ms, elapsed = 11.0281 s.
Peak resident memory used = 185 Mbytes.

~~~~~~~~~~~~~~~~~~~~~~
Pre-Simulation Summary
~~~~~~~~~~~~~~~~~~~~~~
   -   (APS) Multi-threading. The recommended number of threads is 1, consider adding +mt=1 on command line.
~~~~~~~~~~~~~~~~~~~~~~

************************************************
Transient Analysis `tran': time = (0 s -> 20 us)
************************************************
DC simulation time: CPU = 644 us, elapsed = 648.975 us.

Opening the PSFXL file ../psf/tran.tran.tran ...
Important parameter values:
    start = 0 s
    outputstart = 0 s
    stop = 20 us
    step = 20 ns
    maxstep = 200 ns
    ic = all
    useprevic = no
    skipdc = no
    reltol = 10e-06
    abstol(V) = 1 uV
    abstol(I) = 1 pA
    temp = 70 C
    tnom = 27 C
    tempeffects = all
    errpreset = conservative
    method = gear2only
    lteratio = 10
    relref = alllocal
    cmin = 0 F
    gmin = 1 pS
    rabsshort = 1 mOhm


Notice from spectre during transient analysis `tran'.
    Multithreading is disabled due to the size of the design being too small.


Output and IC/nodeset summary:
                 save   1       (current)
                 save   27      (voltage)
                 save   1       (unitless)

    tran: time = 500 ns       (2.5 %), step = 15.15 ps    (75.7 u%)
    tran: time = 1.501 us     (7.5 %), step = 6.069 ns    (30.3 m%)
    tran: time = 2.511 us    (12.6 %), step = 11.94 ns    (59.7 m%)
    tran: time = 3.516 us    (17.6 %), step = 17.41 ns      (87 m%)
    tran: time = 4.505 us    (22.5 %), step = 11.85 ns    (59.3 m%)
    tran: time = 5.506 us    (27.5 %), step = 8.756 ns    (43.8 m%)
    tran: time = 6.503 us    (32.5 %), step = 4.833 ns    (24.2 m%)
    tran: time = 7.501 us    (37.5 %), step = 997 ps      (4.99 m%)
    tran: time = 8.5 us      (42.5 %), step = 1.494 ns    (7.47 m%)
    tran: time = 9.504 us    (47.5 %), step = 7.606 ns      (38 m%)
    tran: time = 10.51 us    (52.5 %), step = 16 ns         (80 m%)
    tran: time = 11.51 us    (57.5 %), step = 14.98 ns    (74.9 m%)
    tran: time = 12.5 us     (62.5 %), step = 10.61 ns      (53 m%)
    tran: time = 13.51 us    (67.5 %), step = 7.993 ns      (40 m%)
    tran: time = 14.5 us     (72.5 %), step = 3.111 ns    (15.6 m%)
    tran: time = 15.5 us     (77.5 %), step = 704.7 ps    (3.52 m%)
    tran: time = 16.5 us     (82.5 %), step = 2.968 ns    (14.8 m%)
    tran: time = 17.51 us    (87.5 %), step = 9.419 ns    (47.1 m%)
    tran: time = 18.5 us     (92.5 %), step = 17.54 ns    (87.7 m%)
    tran: time = 19.5 us     (97.5 %), step = 13.11 ns    (65.5 m%)
Number of accepted tran steps =             19586

Maximum value achieved for any signal of each quantity: 
V: V(net5) = 3.603 V
I: I(V1:p) = 712.8 uA

~~~~~~~~~~~~~~~~~~~~~~~~~~~~~~~~~
Post-Transient Simulation Summary
~~~~~~~~~~~~~~~~~~~~~~~~~~~~~~~~~
   -   To further speed up simulation, consider
          add ++aps on command line
   -   Non-default settings that could significantly slow down simulation
          errpreset = conservative, default moderate
          reltol = 10e-06, default 100e-06 (conservative)
~~~~~~~~~~~~~~~~~~~~~~~~~~~~~~~~~


During simulation, the CPU load for active processors is :
         0 (19.9 %)      1 (12.8 %)      2 (8.5 %)       3 (53.7 %)
         4 (15.9 %)      5 (9.9 %)       6 (5.7 %)       7 (63.5 %)
         8 (9.6 %)       9 (7.6 %)      10 (19.2 %)     11 (7.7 %)
        12 (5.5 %)      13 (10.1 %)     14 (8.7 %)      15 (66.8 %)
        16 (32.6 %)     17 (8.2 %)      18 (6.7 %)      19 (6.5 %)
        20 (6.3 %)      21 (12.2 %)     22 (41.5 %)     23 (8.3 %)
        24 (69.8 %)     25 (3.9 %)      26 (4.8 %)      27 (5.4 %)
        28 (8.4 %)      29 (15.9 %)     30 (6.6 %)      31 (3.3 %)
        32 (3.7 %)      33 (4.7 %)      34 (12.7 %)     35 (23.5 %)
        36 (12.0 %)     37 (21.4 %)     38 (11.4 %)     39 (7.0 %)
        40 (6.6 %)      41 (10.9 %)     42 (2.5 %)      43 (6.2 %)
        44 (18.4 %)     45 (1.8 %)      46 (3.7 %)      47 (75.5 %)
        48 (12.0 %)     49 (6.0 %)      50 (5.5 %)      51 (19.0 %)
        52 (14.1 %)     53 (4.8 %)      54 (3.8 %)      55 (35.6 %)
        56 (6.6 %)      57 (7.2 %)      58 (15.6 %)     59 (7.0 %)
        60 (8.3 %)      61 (6.2 %)      62 (7.2 %)      63 (34.6 %)
        64 (16.8 %)     65 (6.7 %)      66 (6.9 %)      67 (7.6 %)
        68 (6.2 %)      69 (11.1 %)     70 (58.7 %)     71 (11.0 %)
        72 (31.9 %)     73 (6.6 %)      74 (6.2 %)      75 (5.3 %)
        76 (6.1 %)      77 (7.5 %)      78 (5.3 %)      79 (4.8 %)
        80 (3.2 %)      81 (2.0 %)      82 (88.4 %)     83 (77.1 %)
        84 (8.5 %)      85 (79.0 %)     86 (6.4 %)      87 (4.5 %)
        88 (4.5 %)      89 (7.5 %)      90 (4.0 %)      91 (3.7 %)
        92 (82.2 %)     93 (2.2 %)      94 (2.9 %)      95 (24.8 %)
        Total: 1580.6%
Initial condition solution time: CPU = 684 us, elapsed = 688.076 us.
Intrinsic tran analysis time:    CPU = 1.56387 s, elapsed = 1.57947 s.
Total time required for tran analysis `tran': CPU = 1.56594 s, elapsed = 1.58293 s, util. = 98.9%.
Time accumulated: CPU = 2.24146 s, elapsed = 12.6391 s.
Peak resident memory used = 208 Mbytes.

finalTimeOP: writing operating point information to rawfile.

Opening the PSF file ../psf/finalTimeOP.info ...
modelParameter: writing model parameter values to rawfile.

Opening the PSF file ../psf/modelParameter.info ...
element: writing instance parameter values to rawfile.

Opening the PSF file ../psf/element.info ...
outputParameter: writing output parameter values to rawfile.

Opening the PSF file ../psf/outputParameter.info ...
designParamVals: writing netlist parameters to rawfile.

Opening the PSFASCII file ../psf/designParamVals.info ...
primitives: writing primitives to rawfile.

Opening the PSFASCII file ../psf/primitives.info.primitives ...
subckts: writing subcircuits to rawfile.

Opening the PSFASCII file ../psf/subckts.info.subckts ...
Licensing Information:
Lic Summary:
[20:05:16.080402] Cdslmd servers:5280@license-srv.eecs.berkeley.edu:5280@bisc.EECS.Berkeley.EDU
[20:05:16.080424] Feature usage summary:
[20:05:16.080425] Virtuoso_Multi_mode_Simulation


Aggregate audit (8:05:16 PM, Tue May 6, 2025):
Time used: CPU = 2.3 s, elapsed = 12.7 s, util. = 18.1%.
Time spent in licensing: elapsed = 10 s, percentage of total = 79%.
Peak memory used = 210 Mbytes.
Simulation started at: 8:05:03 PM, Tue May 6, 2025, ended at: 8:05:16 PM, Tue May 6, 2025, with elapsed time (wall clock): 12.7 s.
spectre completes with 0 errors, 10 warnings, and 7 notices.
