
Spectre (R) Circuit Simulator
Version 21.1.0.751.isr19 64bit -- 22 May 2023
Copyright (C) 1989-2023 Cadence Design Systems, Inc. All rights reserved worldwide. Cadence and Spectre are registered trademarks of Cadence Design Systems, Inc. All others are the property of their respective holders.

Includes RSA BSAFE(R) Cryptographic or Security Protocol Software from RSA Security, Inc.

User: ee140-aax   Host: eda-3.EECS.Berkeley.EDU   HostID: 2080922A   PID: 910736
Memory  available: 627.1944 GB  physical: 810.7774 GB
Linux   : Red Hat Enterprise Linux release 8.10 (Ootpa)
CPU Type: AMD EPYC 9454 48-Core Processor
        Socket: Processors [Frequency] (Hyperthreaded Processor)
        0:       0 [1399.5] (),  1 [1500.0] (),  2 [2100.0] (),  3 [1771.0] (),  4 [1500.0] ()
                 5 [1500.0] (),  6 [1500.0] (),  7 [1500.0] (),  8 [1500.0] (),  9 [1500.0] ()
                10 [1500.0] (), 11 [1500.0] (), 12 [2203.3] (), 13 [2750.0] (), 14 [1519.6] ()
                15 [1500.0] (), 16 [2100.0] (), 17 [1500.0] (), 18 [1500.0] (), 19 [1500.0] ()
                20 [1500.0] (), 21 [1500.0] (), 22 [1500.0] (), 23 [1500.0] (), 24 [1500.0] ()
                25 [1500.0] (), 26 [1500.0] (), 27 [1500.0] (), 28 [1500.0] (), 29 [1500.0] ()
                30 [1500.0] (), 31 [1500.0] (), 32 [1500.0] (), 33 [1500.0] (), 34 [1500.0] ()
                35 [1500.0] (), 36 [1500.0] (), 37 [1500.0] (), 38 [1500.0] (), 39 [1500.0] ()
                40 [2071.4] (), 41 [1500.0] (), 42 [1500.0] (), 43 [1500.0] (), 44 [1500.0] ()
                45 [1500.0] (), 46 [3799.9] (), 47 [1500.0] (), 48 [1500.0] (), 49 [1500.0] ()
                50 [1500.0] (), 51 [1500.0] (), 52 [1500.0] (), 53 [1500.0] (), 54 [1500.0] ()
                55 [1500.0] (), 56 [1500.0] (), 57 [1500.0] (), 58 [1500.0] (), 59 [1500.0] ()
                60 [2297.5] (), 61 [2100.0] (), 62 [1500.0] (), 63 [1500.0] (), 64 [1500.0] ()
                65 [1500.0] (), 66 [1500.0] (), 67 [1499.7] (), 68 [1500.0] (), 69 [1500.0] ()
                70 [1500.0] (), 71 [1500.0] (), 72 [1500.0] (), 73 [1500.0] (), 74 [1500.0] ()
                75 [3799.9] (), 76 [1500.0] (), 77 [1500.0] (), 78 [1500.0] (), 79 [1500.0] ()
                80 [1500.0] (), 81 [2750.0] (), 82 [1500.0] (), 83 [1500.0] (), 84 [1500.0] ()
                85 [1500.0] (), 86 [1500.0] (), 87 [1500.0] (), 88 [1500.0] (), 89 [1500.0] ()
                90 [1500.0] (), 91 [1500.0] (), 92 [1500.0] (), 93 [1500.0] (), 94 [2750.0] ()
                95 [1500.0] ()
        
System load averages (1min, 5min, 15min) : 4.7 %, 5.5 %, 6.3 %
Hyperthreading is enabled
HPC is enabled


Simulating `input.scs' on eda-3.EECS.Berkeley.EDU at 8:50:23 PM, Wed May 7, 2025 (process id: 910736).
Current working directory: /home/cc/ee140/sp25/class/ee140-aax/cadence_finalproj/Sim/aaa-Final_LDO_VDDDA/spectre/schematic/netlist
Environment variable:
    SPECTRE_DEFAULTS=-E
Command line:
    /share/instsww/cadence/SPECTRE211/tools/bin/spectre -64 input.scs  \
        +escchars +log ../psf/spectre.out -format psfxl -raw ../psf  \
        +aps +mt +lqtimeout 900 -maxw 5 -maxn 5 -env ade  \
        +adespetkn=adespe

Licensing Information:
[20:50:23.062306] Configured Lic search path (21.01-s002): 5280@license-srv.eecs.berkeley.edu:5280@bisc.EECS.Berkeley.EDU

Licensing Information:
[20:50:33.318178] Periodic Lic check successful

Loading /share/instsww/cadence/SPECTRE211/tools.lnx86/cmi/lib/64bit/5.0/libinfineon_sh.so ...
Loading /share/instsww/cadence/SPECTRE211/tools.lnx86/cmi/lib/64bit/5.0/libphilips_o_sh.so ...
Loading /share/instsww/cadence/SPECTRE211/tools.lnx86/cmi/lib/64bit/5.0/libphilips_sh.so ...
Loading /share/instsww/cadence/SPECTRE211/tools.lnx86/cmi/lib/64bit/5.0/libsparam_sh.so ...
Loading /share/instsww/cadence/SPECTRE211/tools.lnx86/cmi/lib/64bit/5.0/libstmodels_sh.so ...
Reading file:  /home/cc/ee140/sp25/class/ee140-aax/cadence_finalproj/Sim/aaa-Final_LDO_VDDDA/spectre/schematic/netlist/input.scs
Reading link:  /share/instsww/cadence/SPECTRE211
Reading file:  /share/instsww/cadence/SPECTRE.21.10.751/tools.lnx86/spectre/etc/configs/spectre.cfg
Reading file:  /usr/include/stdc-predef.h
Reading file:  /home/cc/ee140/sp25/class/ee140-aax/cadence_finalproj/sky130_release_0.0.4/models/sky130.lib.spice
Reading file:  /home/cc/ee140/sp25/class/ee140-aax/cadence_finalproj/sky130_release_0.0.4/cells/nfet_01v8/sky130_fd_pr__nfet_01v8__tt.corner.spice
Reading file:  /home/cc/ee140/sp25/class/ee140-aax/cadence_finalproj/sky130_release_0.0.4/cells/nfet_01v8/sky130_fd_pr__nfet_01v8__tt.pm3.spice
Reading file:  /home/cc/ee140/sp25/class/ee140-aax/cadence_finalproj/sky130_release_0.0.4/cells/nfet_01v8_lvt/sky130_fd_pr__nfet_01v8_lvt__tt.corner.spice
Reading file:  /home/cc/ee140/sp25/class/ee140-aax/cadence_finalproj/sky130_release_0.0.4/cells/nfet_01v8_lvt/sky130_fd_pr__nfet_01v8_lvt__tt.pm3.spice
Reading file:  /home/cc/ee140/sp25/class/ee140-aax/cadence_finalproj/sky130_release_0.0.4/cells/pfet_01v8/sky130_fd_pr__pfet_01v8__tt.corner.spice
Reading file:  /home/cc/ee140/sp25/class/ee140-aax/cadence_finalproj/sky130_release_0.0.4/cells/pfet_01v8/sky130_fd_pr__pfet_01v8__tt.pm3.spice
Reading file:  /home/cc/ee140/sp25/class/ee140-aax/cadence_finalproj/sky130_release_0.0.4/cells/nfet_03v3_nvt/sky130_fd_pr__nfet_03v3_nvt__tt.corner.spice
Reading file:  /home/cc/ee140/sp25/class/ee140-aax/cadence_finalproj/sky130_release_0.0.4/cells/nfet_03v3_nvt/sky130_fd_pr__nfet_03v3_nvt.pm3.spice
Reading file:  /home/cc/ee140/sp25/class/ee140-aax/cadence_finalproj/sky130_release_0.0.4/cells/nfet_05v0_nvt/sky130_fd_pr__nfet_05v0_nvt__tt.corner.spice
Reading file:  /home/cc/ee140/sp25/class/ee140-aax/cadence_finalproj/sky130_release_0.0.4/cells/nfet_05v0_nvt/sky130_fd_pr__nfet_05v0_nvt.pm3.spice
Reading file:  /home/cc/ee140/sp25/class/ee140-aax/cadence_finalproj/sky130_release_0.0.4/cells/esd_nfet_01v8/sky130_fd_pr__esd_nfet_01v8__tt.corner.spice
Reading file:  /home/cc/ee140/sp25/class/ee140-aax/cadence_finalproj/sky130_release_0.0.4/cells/esd_nfet_01v8/sky130_fd_pr__esd_nfet_01v8.pm3.spice
Reading file:  /home/cc/ee140/sp25/class/ee140-aax/cadence_finalproj/sky130_release_0.0.4/cells/pfet_01v8_lvt/sky130_fd_pr__pfet_01v8_lvt__tt.corner.spice
Reading file:  /home/cc/ee140/sp25/class/ee140-aax/cadence_finalproj/sky130_release_0.0.4/cells/pfet_01v8_lvt/sky130_fd_pr__pfet_01v8_lvt__tt.pm3.spice
Reading file:  /home/cc/ee140/sp25/class/ee140-aax/cadence_finalproj/sky130_release_0.0.4/cells/pfet_01v8_hvt/sky130_fd_pr__pfet_01v8_hvt__tt.corner.spice
Reading file:  /home/cc/ee140/sp25/class/ee140-aax/cadence_finalproj/sky130_release_0.0.4/cells/pfet_01v8_hvt/sky130_fd_pr__pfet_01v8_hvt__tt.pm3.spice
Reading file:  /home/cc/ee140/sp25/class/ee140-aax/cadence_finalproj/sky130_release_0.0.4/cells/esd_pfet_g5v0d10v5/sky130_fd_pr__esd_pfet_g5v0d10v5__tt.corner.spice
Reading file:  /home/cc/ee140/sp25/class/ee140-aax/cadence_finalproj/sky130_release_0.0.4/cells/esd_pfet_g5v0d10v5/sky130_fd_pr__esd_pfet_g5v0d10v5.pm3.spice
Reading file:  /home/cc/ee140/sp25/class/ee140-aax/cadence_finalproj/sky130_release_0.0.4/cells/pfet_g5v0d10v5/sky130_fd_pr__pfet_g5v0d10v5__tt.corner.spice
Reading file:  /home/cc/ee140/sp25/class/ee140-aax/cadence_finalproj/sky130_release_0.0.4/cells/pfet_g5v0d10v5/sky130_fd_pr__pfet_g5v0d10v5__tt.pm3.spice
Reading file:  /home/cc/ee140/sp25/class/ee140-aax/cadence_finalproj/sky130_release_0.0.4/cells/pfet_g5v0d16v0/sky130_fd_pr__pfet_g5v0d16v0__tt.corner.spice
Reading file:  /home/cc/ee140/sp25/class/ee140-aax/cadence_finalproj/sky130_release_0.0.4/cells/nfet_g5v0d10v5/sky130_fd_pr__nfet_g5v0d10v5__tt.corner.spice
Reading file:  /home/cc/ee140/sp25/class/ee140-aax/cadence_finalproj/sky130_release_0.0.4/cells/nfet_g5v0d10v5/sky130_fd_pr__nfet_g5v0d10v5__tt.pm3.spice
Reading file:  /home/cc/ee140/sp25/class/ee140-aax/cadence_finalproj/sky130_release_0.0.4/cells/nfet_g5v0d16v0/sky130_fd_pr__nfet_g5v0d16v0__tt_discrete.corner.spice
Reading file:  /home/cc/ee140/sp25/class/ee140-aax/cadence_finalproj/sky130_release_0.0.4/cells/nfet_g5v0d16v0/sky130_fd_pr__nfet_g5v0d16v0__subcircuit.pm3.spice
Reading file:  /home/cc/ee140/sp25/class/ee140-aax/cadence_finalproj/sky130_release_0.0.4/cells/nfet_g5v0d16v0/sky130_fd_pr__nfet_g5v0d16v0.pm3.spice
Reading file:  /home/cc/ee140/sp25/class/ee140-aax/cadence_finalproj/sky130_release_0.0.4/cells/esd_nfet_g5v0d10v5/sky130_fd_pr__esd_nfet_g5v0d10v5__tt.corner.spice
Reading file:  /home/cc/ee140/sp25/class/ee140-aax/cadence_finalproj/sky130_release_0.0.4/cells/esd_nfet_g5v0d10v5/sky130_fd_pr__esd_nfet_g5v0d10v5.pm3.spice
Reading file:  /home/cc/ee140/sp25/class/ee140-aax/cadence_finalproj/sky130_release_0.0.4/models/corners/tt/nonfet.spice
Reading file:  /home/cc/ee140/sp25/class/ee140-aax/cadence_finalproj/sky130_release_0.0.4/cells/nfet_01v8/sky130_fd_pr__nfet_01v8__mismatch.corner.spice
Reading file:  /home/cc/ee140/sp25/class/ee140-aax/cadence_finalproj/sky130_release_0.0.4/cells/pfet_01v8/sky130_fd_pr__pfet_01v8__mismatch.corner.spice
Reading file:  /home/cc/ee140/sp25/class/ee140-aax/cadence_finalproj/sky130_release_0.0.4/cells/nfet_01v8_lvt/sky130_fd_pr__nfet_01v8_lvt__mismatch.corner.spice
Reading file:  /home/cc/ee140/sp25/class/ee140-aax/cadence_finalproj/sky130_release_0.0.4/cells/pfet_01v8_lvt/sky130_fd_pr__pfet_01v8_lvt__mismatch.corner.spice
Reading file:  /home/cc/ee140/sp25/class/ee140-aax/cadence_finalproj/sky130_release_0.0.4/cells/pfet_01v8_hvt/sky130_fd_pr__pfet_01v8_hvt__mismatch.corner.spice
Reading file:  /home/cc/ee140/sp25/class/ee140-aax/cadence_finalproj/sky130_release_0.0.4/cells/nfet_g5v0d10v5/sky130_fd_pr__nfet_g5v0d10v5__mismatch.corner.spice
Reading file:  /home/cc/ee140/sp25/class/ee140-aax/cadence_finalproj/sky130_release_0.0.4/cells/pfet_g5v0d10v5/sky130_fd_pr__pfet_g5v0d10v5__mismatch.corner.spice
Reading file:  /home/cc/ee140/sp25/class/ee140-aax/cadence_finalproj/sky130_release_0.0.4/cells/nfet_05v0_nvt/sky130_fd_pr__nfet_05v0_nvt__mismatch.corner.spice
Reading file:  /home/cc/ee140/sp25/class/ee140-aax/cadence_finalproj/sky130_release_0.0.4/cells/nfet_03v3_nvt/sky130_fd_pr__nfet_03v3_nvt__mismatch.corner.spice
Reading file:  /home/cc/ee140/sp25/class/ee140-aax/cadence_finalproj/sky130_release_0.0.4/models/r+c/res_typical__cap_typical.spice
Reading file:  /home/cc/ee140/sp25/class/ee140-aax/cadence_finalproj/sky130_release_0.0.4/models/sky130_fd_pr__model__r+c.model.spice
Reading file:  /home/cc/ee140/sp25/class/ee140-aax/cadence_finalproj/sky130_release_0.0.4/models/r+c.mrp1monte.spice
Reading file:  /home/cc/ee140/sp25/class/ee140-aax/cadence_finalproj/sky130_release_0.0.4/cells/res_generic_nd/sky130_fd_pr__res_generic_nd.model.spice
Reading file:  /home/cc/ee140/sp25/class/ee140-aax/cadence_finalproj/sky130_release_0.0.4/cells/res_generic_pd/sky130_fd_pr__res_generic_pd.model.spice
Reading file:  /home/cc/ee140/sp25/class/ee140-aax/cadence_finalproj/sky130_release_0.0.4/models/parameters/typical.spice
Reading file:  /home/cc/ee140/sp25/class/ee140-aax/cadence_finalproj/sky130_release_0.0.4/models/r+c/res_typical__cap_typical__lin.spice
Reading file:  /home/cc/ee140/sp25/class/ee140-aax/cadence_finalproj/sky130_release_0.0.4/models/capacitors/sky130_fd_pr__model__cap_vpp.model.spice
Reading file:  /home/cc/ee140/sp25/class/ee140-aax/cadence_finalproj/sky130_release_0.0.4/cells/cap_vpp_08p6x07p8_l1m1m2_noshield/sky130_fd_pr__cap_vpp_08p6x07p8_l1m1m2_noshield.model.spice
Reading file:  /home/cc/ee140/sp25/class/ee140-aax/cadence_finalproj/sky130_release_0.0.4/cells/cap_vpp_04p4x04p6_l1m1m2_noshield/sky130_fd_pr__cap_vpp_04p4x04p6_l1m1m2_noshield.model.spice
Reading file:  /home/cc/ee140/sp25/class/ee140-aax/cadence_finalproj/sky130_release_0.0.4/cells/cap_vpp_11p5x11p7_l1m1m2_noshield/sky130_fd_pr__cap_vpp_11p5x11p7_l1m1m2_noshield.model.spice
Reading file:  /home/cc/ee140/sp25/class/ee140-aax/cadence_finalproj/sky130_release_0.0.4/cells/cap_vpp_01p8x01p8_m1m2_noshield/sky130_fd_pr__cap_vpp_01p8x01p8_m1m2_noshield.model.spice
Reading file:  /home/cc/ee140/sp25/class/ee140-aax/cadence_finalproj/sky130_release_0.0.4/cells/cap_vpp_08p6x07p8_m1m2_shieldl1/sky130_fd_pr__cap_vpp_08p6x07p8_m1m2_shieldl1.model.spice
Reading file:  /home/cc/ee140/sp25/class/ee140-aax/cadence_finalproj/sky130_release_0.0.4/cells/cap_vpp_04p4x04p6_m1m2_shieldl1/sky130_fd_pr__cap_vpp_04p4x04p6_m1m2_shieldl1.model.spice
Reading file:  /home/cc/ee140/sp25/class/ee140-aax/cadence_finalproj/sky130_release_0.0.4/cells/cap_vpp_11p5x11p7_m1m2_shieldl1/sky130_fd_pr__cap_vpp_11p5x11p7_m1m2_shieldl1.model.spice
Reading file:  /home/cc/ee140/sp25/class/ee140-aax/cadence_finalproj/sky130_release_0.0.4/cells/cap_vpp_08p6x07p8_l1m1m2_shieldpo_floatm3/sky130_fd_pr__cap_vpp_08p6x07p8_l1m1m2_shieldpo_floatm3.model.spice
Reading file:  /home/cc/ee140/sp25/class/ee140-aax/cadence_finalproj/sky130_release_0.0.4/cells/cap_vpp_04p4x04p6_l1m1m2_shieldpo_floatm3/sky130_fd_pr__cap_vpp_04p4x04p6_l1m1m2_shieldpo_floatm3.model.spice
Reading file:  /home/cc/ee140/sp25/class/ee140-aax/cadence_finalproj/sky130_release_0.0.4/cells/cap_vpp_11p5x11p7_l1m1m2_shieldpom3/sky130_fd_pr__cap_vpp_11p5x11p7_l1m1m2_shieldpom3.model.spice
Reading file:  /home/cc/ee140/sp25/class/ee140-aax/cadence_finalproj/sky130_release_0.0.4/cells/cap_vpp_03p9x03p9_m1m2_shieldl1_floatm3/sky130_fd_pr__cap_vpp_03p9x03p9_m1m2_shieldl1_floatm3.model.spice
Reading file:  /home/cc/ee140/sp25/class/ee140-aax/cadence_finalproj/sky130_release_0.0.4/cells/cap_vpp_04p4x04p6_l1m1m2_noshield/sky130_fd_pr__cap_vpp_04p4x04p6_l1m1m2_noshield_o1.model.spice
Reading file:  /home/cc/ee140/sp25/class/ee140-aax/cadence_finalproj/sky130_release_0.0.4/cells/cap_vpp_08p6x07p8_m1m2_noshield/sky130_fd_pr__cap_vpp_08p6x07p8_m1m2_noshield.model.spice
Reading file:  /home/cc/ee140/sp25/class/ee140-aax/cadence_finalproj/sky130_release_0.0.4/cells/cap_vpp_04p4x04p6_m1m2_noshield/sky130_fd_pr__cap_vpp_04p4x04p6_m1m2_noshield_o2.model.spice
Reading file:  /home/cc/ee140/sp25/class/ee140-aax/cadence_finalproj/sky130_release_0.0.4/cells/cap_vpp_02p4x04p6_m1m2_noshield/sky130_fd_pr__cap_vpp_02p4x04p6_m1m2_noshield.model.spice
Reading file:  /home/cc/ee140/sp25/class/ee140-aax/cadence_finalproj/sky130_release_0.0.4/cells/cap_vpp_04p4x04p6_m1m2_noshield/sky130_fd_pr__cap_vpp_04p4x04p6_m1m2_noshield.model.spice
Reading file:  /home/cc/ee140/sp25/class/ee140-aax/cadence_finalproj/sky130_release_0.0.4/cells/cap_vpp_11p5x11p7_m1m2_noshield/sky130_fd_pr__cap_vpp_11p5x11p7_m1m2_noshield.model.spice
Reading file:  /home/cc/ee140/sp25/class/ee140-aax/cadence_finalproj/sky130_release_0.0.4/cells/npn_05v5/sky130_fd_pr__npn_05v5__t.corner.spice
Reading file:  /home/cc/ee140/sp25/class/ee140-aax/cadence_finalproj/sky130_release_0.0.4/cells/npn_05v5/sky130_fd_pr__npn_05v5_W1p00L1p00.model.spice
Reading file:  /home/cc/ee140/sp25/class/ee140-aax/cadence_finalproj/sky130_release_0.0.4/cells/npn_05v5/sky130_fd_pr__npn_05v5_W1p00L2p00.model.spice
Reading file:  /home/cc/ee140/sp25/class/ee140-aax/cadence_finalproj/sky130_release_0.0.4/cells/npn_11v0/sky130_fd_pr__npn_11v0_W1p00L1p00.model.spice
Reading file:  /home/cc/ee140/sp25/class/ee140-aax/cadence_finalproj/sky130_release_0.0.4/cells/pnp_05v5/sky130_fd_pr__pnp_05v5_W3p40L3p40.model.spice
Reading file:  /home/cc/ee140/sp25/class/ee140-aax/cadence_finalproj/sky130_release_0.0.4/models/corners/tt/specialized_cells.spice
Reading file:  /home/cc/ee140/sp25/class/ee140-aax/cadence_finalproj/sky130_release_0.0.4/cells/special_nfet_latch/sky130_fd_pr__special_nfet_latch__mismatch.corner.spice
Reading file:  /home/cc/ee140/sp25/class/ee140-aax/cadence_finalproj/sky130_release_0.0.4/cells/special_nfet_pass/sky130_fd_pr__special_nfet_pass__mismatch.corner.spice
Reading file:  /home/cc/ee140/sp25/class/ee140-aax/cadence_finalproj/sky130_release_0.0.4/cells/special_nfet_pass_flash/sky130_fd_pr__special_nfet_pass_flash__mismatch.corner.spice
Reading file:  /home/cc/ee140/sp25/class/ee140-aax/cadence_finalproj/sky130_release_0.0.4/cells/special_pfet_pass/sky130_fd_pr__special_pfet_pass__mismatch.corner.spice
Reading file:  /home/cc/ee140/sp25/class/ee140-aax/cadence_finalproj/sky130_release_0.0.4/cells/special_nfet_pass_lvt/sky130_fd_pr__special_nfet_pass_lvt__tt.corner.spice
Reading file:  /home/cc/ee140/sp25/class/ee140-aax/cadence_finalproj/sky130_release_0.0.4/cells/special_nfet_pass_lvt/sky130_fd_pr__special_nfet_pass_lvt.pm3.spice
Reading file:  /home/cc/ee140/sp25/class/ee140-aax/cadence_finalproj/sky130_release_0.0.4/models/all.spice
Reading file:  /home/cc/ee140/sp25/class/ee140-aax/cadence_finalproj/sky130_release_0.0.4/models/parameters/lod.spice
Reading file:  /home/cc/ee140/sp25/class/ee140-aax/cadence_finalproj/sky130_release_0.0.4/models/parasitics/sky130_fd_pr__model__parasitic__diode_ps2nw.model.spice
Reading file:  /home/cc/ee140/sp25/class/ee140-aax/cadence_finalproj/sky130_release_0.0.4/cells/diode_pw2nd_05v5/sky130_fd_pr__diode_pw2nd_05v5.model.spice
Reading file:  /home/cc/ee140/sp25/class/ee140-aax/cadence_finalproj/sky130_release_0.0.4/cells/diode_pd2nw_05v5/sky130_fd_pr__diode_pd2nw_05v5.model.spice
Reading file:  /home/cc/ee140/sp25/class/ee140-aax/cadence_finalproj/sky130_release_0.0.4/cells/diode_pd2nw_05v5_hvt/sky130_fd_pr__diode_pd2nw_05v5_hvt.model.spice
Reading file:  /home/cc/ee140/sp25/class/ee140-aax/cadence_finalproj/sky130_release_0.0.4/cells/diode_pw2nd_11v0/sky130_fd_pr__diode_pw2nd_11v0.model.spice
Reading file:  /home/cc/ee140/sp25/class/ee140-aax/cadence_finalproj/sky130_release_0.0.4/cells/diode_pd2nw_11v0/sky130_fd_pr__diode_pd2nw_11v0.model.spice
Reading file:  /home/cc/ee140/sp25/class/ee140-aax/cadence_finalproj/sky130_release_0.0.4/cells/diode_pw2nd_05v5_nvt/sky130_fd_pr__diode_pw2nd_05v5_nvt.model.spice
Reading file:  /home/cc/ee140/sp25/class/ee140-aax/cadence_finalproj/sky130_release_0.0.4/cells/diode_pw2nd_05v5_lvt/sky130_fd_pr__diode_pw2nd_05v5_lvt.model.spice
Reading file:  /home/cc/ee140/sp25/class/ee140-aax/cadence_finalproj/sky130_release_0.0.4/cells/diode_pd2nw_05v5_lvt/sky130_fd_pr__diode_pd2nw_05v5_lvt.model.spice
Reading file:  /home/cc/ee140/sp25/class/ee140-aax/cadence_finalproj/sky130_release_0.0.4/models/parasitics/sky130_fd_pr__model__parasitic__diode_pw2dn.model.spice
Reading file:  /home/cc/ee140/sp25/class/ee140-aax/cadence_finalproj/sky130_release_0.0.4/models/parasitics/sky130_fd_pr__model__parasitic__diode_ps2dn.model.spice
Reading file:  /home/cc/ee140/sp25/class/ee140-aax/cadence_finalproj/sky130_release_0.0.4/cells/pfet_g5v0d16v0/sky130_fd_pr__pfet_g5v0d16v0__parasitic__diode_pw2dn.model.spice
Reading file:  /home/cc/ee140/sp25/class/ee140-aax/cadence_finalproj/sky130_release_0.0.4/cells/pnp_05v5/sky130_fd_pr__pnp_05v5_W0p68L0p68.model.spice
Reading file:  /home/cc/ee140/sp25/class/ee140-aax/cadence_finalproj/sky130_release_0.0.4/cells/pfet_g5v0d16v0/sky130_fd_pr__pfet_g5v0d16v0.pm3.spice
Reading file:  /home/cc/ee140/sp25/class/ee140-aax/cadence_finalproj/sky130_release_0.0.4/cells/pfet_g5v0d16v0/sky130_fd_pr__pfet_g5v0d16v0__subcircuit.pm3.spice
Reading file:  /home/cc/ee140/sp25/class/ee140-aax/cadence_finalproj/sky130_release_0.0.4/cells/cap_var_lvt/sky130_fd_pr__cap_var_lvt.model.spice
Reading file:  /home/cc/ee140/sp25/class/ee140-aax/cadence_finalproj/sky130_release_0.0.4/cells/cap_vpp_08p6x07p8_l1m1m2_noshield/sky130_fd_pr__cap_vpp_08p6x07p8_l1m1m2_noshield_o1.model.spice
Reading file:  /home/cc/ee140/sp25/class/ee140-aax/cadence_finalproj/sky130_release_0.0.4/models/capacitors/sky130_fd_pr__model__cap_mim.model.spice
Reading file:  /home/cc/ee140/sp25/class/ee140-aax/cadence_finalproj/sky130_release_0.0.4/cells/cap_mim_m3/sky130_fd_pr__cap_mim_m3_1.model.spice
Reading file:  /home/cc/ee140/sp25/class/ee140-aax/cadence_finalproj/sky130_release_0.0.4/cells/cap_mim_m3/sky130_fd_pr__cap_mim_m3_2.model.spice
Reading file:  /home/cc/ee140/sp25/class/ee140-aax/cadence_finalproj/sky130_release_0.0.4/models/capacitors/sky130_fd_pr__model__cap_vpp_only_mos.model.spice
Reading file:  /home/cc/ee140/sp25/class/ee140-aax/cadence_finalproj/sky130_release_0.0.4/cells/cap_vpp_04p4x04p6_m1m2_noshield/sky130_fd_pr__cap_vpp_04p4x04p6_m1m2_noshield_o1nhv.model.spice
Reading file:  /home/cc/ee140/sp25/class/ee140-aax/cadence_finalproj/sky130_release_0.0.4/cells/cap_vpp_04p4x04p6_m1m2_noshield/sky130_fd_pr__cap_vpp_04p4x04p6_m1m2_noshield_o1phv.model.spice
Reading file:  /home/cc/ee140/sp25/class/ee140-aax/cadence_finalproj/sky130_release_0.0.4/models/sonos_p/begin_of_life/mm.spice
Reading file:  /home/cc/ee140/sp25/class/ee140-aax/cadence_finalproj/sky130_release_0.0.4/models/sonos_e/begin_of_life/mm.spice
Reading file:  /home/cc/ee140/sp25/class/ee140-aax/cadence_finalproj/sky130_release_0.0.4/models/head.spice
Reading file:  /home/cc/ee140/sp25/class/ee140-aax/cadence_finalproj/sky130_release_0.0.4/cells/special_nfet_pass/sky130_fd_pr__special_nfet_pass.pm3.spice
Reading file:  /home/cc/ee140/sp25/class/ee140-aax/cadence_finalproj/sky130_release_0.0.4/cells/special_nfet_latch/sky130_fd_pr__special_nfet_latch.pm3.spice
Reading file:  /home/cc/ee140/sp25/class/ee140-aax/cadence_finalproj/sky130_release_0.0.4/cells/special_pfet_pass/sky130_fd_pr__special_pfet_pass.pm3.spice
Reading file:  /home/cc/ee140/sp25/class/ee140-aax/cadence_finalproj/sky130_release_0.0.4/cells/special_nfet_pass_flash/sky130_fd_pr__special_nfet_pass_flash.pm3.spice
Reading file:  /home/cc/ee140/sp25/class/ee140-aax/cadence_finalproj/sky130_release_0.0.4/models/capacitors/sky130_fd_pr__model__cap_vpp_only_pq.model.spice
Reading file:  /home/cc/ee140/sp25/class/ee140-aax/cadence_finalproj/sky130_release_0.0.4/cells/cap_vpp_08p6x07p8_m1m2m3_shieldl1/sky130_fd_pr__cap_vpp_08p6x07p8_m1m2m3_shieldl1.model.spice
Reading file:  /home/cc/ee140/sp25/class/ee140-aax/cadence_finalproj/sky130_release_0.0.4/cells/cap_vpp_04p4x04p6_m1m2m3_shieldl1/sky130_fd_pr__cap_vpp_04p4x04p6_m1m2m3_shieldl1.model.spice
Reading file:  /home/cc/ee140/sp25/class/ee140-aax/cadence_finalproj/sky130_release_0.0.4/cells/cap_vpp_11p5x11p7_m1m2m3_shieldl1/sky130_fd_pr__cap_vpp_11p5x11p7_m1m2m3_shieldl1.model.spice
Reading file:  /home/cc/ee140/sp25/class/ee140-aax/cadence_finalproj/sky130_release_0.0.4/cells/cap_vpp_11p5x11p7_l1m1m2m3_shieldm4/sky130_fd_pr__cap_vpp_11p5x11p7_l1m1m2m3_shieldm4.model.spice
Reading file:  /home/cc/ee140/sp25/class/ee140-aax/cadence_finalproj/sky130_release_0.0.4/cells/cap_vpp_11p5x11p7_l1m1m2m3_shieldpom4/sky130_fd_pr__cap_vpp_11p5x11p7_l1m1m2m3_shieldpom4.model.spice
Reading file:  /home/cc/ee140/sp25/class/ee140-aax/cadence_finalproj/sky130_release_0.0.4/cells/cap_vpp_06p8x06p1_l1m1m2m3_shieldpom4/sky130_fd_pr__cap_vpp_06p8x06p1_l1m1m2m3_shieldpom4.model.spice
Reading file:  /home/cc/ee140/sp25/class/ee140-aax/cadence_finalproj/sky130_release_0.0.4/cells/cap_vpp_06p8x06p1_m1m2m3_shieldl1m4/sky130_fd_pr__cap_vpp_06p8x06p1_m1m2m3_shieldl1m4.model.spice
Reading file:  /home/cc/ee140/sp25/class/ee140-aax/cadence_finalproj/sky130_release_0.0.4/models/capacitors/sky130_fd_pr__model__cap_vpp_only_p.model.spice
Reading file:  /home/cc/ee140/sp25/class/ee140-aax/cadence_finalproj/sky130_release_0.0.4/cells/cap_vpp_11p5x11p7_l1m1m2m3m4_shieldm5/sky130_fd_pr__cap_vpp_11p5x11p7_l1m1m2m3m4_shieldm5.model.spice
Reading file:  /home/cc/ee140/sp25/class/ee140-aax/cadence_finalproj/sky130_release_0.0.4/cells/cap_vpp_11p5x11p7_l1m1m2m3m4_shieldpom5/sky130_fd_pr__cap_vpp_11p5x11p7_l1m1m2m3m4_shieldpom5.model.spice
Reading file:  /home/cc/ee140/sp25/class/ee140-aax/cadence_finalproj/sky130_release_0.0.4/cells/cap_vpp_11p5x11p7_m1m2m3m4_shieldl1m5/sky130_fd_pr__cap_vpp_11p5x11p7_m1m2m3m4_shieldl1m5.model.spice
Reading file:  /home/cc/ee140/sp25/class/ee140-aax/cadence_finalproj/sky130_release_0.0.4/cells/cap_vpp_11p5x11p7_m1m4_noshield/sky130_fd_pr__cap_vpp_11p5x11p7_m1m4_noshield.model.spice
Reading file:  /home/cc/ee140/sp25/class/ee140-aax/cadence_finalproj/sky130_release_0.0.4/cells/cap_vpp_11p5x11p7_m1m2m3m4_shieldm5/sky130_fd_pr__cap_vpp_11p5x11p7_m1m2m3m4_shieldm5.model.spice
Reading file:  /home/cc/ee140/sp25/class/ee140-aax/cadence_finalproj/sky130_release_0.0.4/cells/cap_vpp_08p6x07p8_m1m2m3_shieldl1m5_floatm4/sky130_fd_pr__cap_vpp_08p6x07p8_m1m2m3_shieldl1m5_floatm4.model.spice
Reading file:  /home/cc/ee140/sp25/class/ee140-aax/cadence_finalproj/sky130_release_0.0.4/cells/cap_vpp_04p4x04p6_m1m2m3_shieldl1m5_floatm4/sky130_fd_pr__cap_vpp_04p4x04p6_m1m2m3_shieldl1m5_floatm4.model.spice
Reading file:  /home/cc/ee140/sp25/class/ee140-aax/cadence_finalproj/sky130_release_0.0.4/cells/cap_vpp_11p5x11p7_m1m2m3_shieldl1m5_floatm4/sky130_fd_pr__cap_vpp_11p5x11p7_m1m2m3_shieldl1m5_floatm4.model.spice
Reading file:  /home/cc/ee140/sp25/class/ee140-aax/cadence_finalproj/sky130_release_0.0.4/cells/cap_vpp_11p3x11p8_l1m1m2m3m4_shieldm5/sky130_fd_pr__cap_vpp_11p3x11p8_l1m1m2m3m4_shieldm5_nhv.model.spice
Reading file:  /home/cc/ee140/sp25/class/ee140-aax/cadence_finalproj/sky130_release_0.0.4/cells/cap_vpp_11p3x11p8_l1m1m2m3m4_shieldm5/sky130_fd_pr__cap_vpp_11p3x11p8_l1m1m2m3m4_shieldm5_nhv__base.model.spice
Reading file:  /home/cc/ee140/sp25/class/ee140-aax/cadence_finalproj/sky130_release_0.0.4/cells/cap_vpp_11p5x11p7_l1m1m2m3m4_shieldpom5/sky130_fd_pr__cap_vpp_11p5x11p7_l1m1m2m3m4_shieldpom5_x.model.spice
Reading file:  /home/cc/ee140/sp25/class/ee140-aax/cadence_finalproj/sky130_release_0.0.4/cells/cap_vpp_02p9x06p1_m1m2m3m4_shieldl1/sky130_fd_pr__cap_vpp_02p9x06p1_m1m2m3m4_shieldl1_fingercap2.model.spice
Reading file:  /home/cc/ee140/sp25/class/ee140-aax/cadence_finalproj/sky130_release_0.0.4/cells/cap_vpp_02p7x11p1_m1m2m3m4_shieldl1/sky130_fd_pr__cap_vpp_02p7x11p1_m1m2m3m4_shieldl1_fingercap.model.spice
Reading file:  /home/cc/ee140/sp25/class/ee140-aax/cadence_finalproj/sky130_release_0.0.4/cells/cap_vpp_02p7x21p1_m1m2m3m4_shieldl1/sky130_fd_pr__cap_vpp_02p7x21p1_m1m2m3m4_shieldl1_fingercap.model.spice
Reading file:  /home/cc/ee140/sp25/class/ee140-aax/cadence_finalproj/sky130_release_0.0.4/cells/cap_vpp_02p7x41p1_m1m2m3m4_shieldl1/sky130_fd_pr__cap_vpp_02p7x41p1_m1m2m3m4_shieldl1_fingercap.model.spice
Reading file:  /home/cc/ee140/sp25/class/ee140-aax/cadence_finalproj/sky130_release_0.0.4/cells/cap_vpp_02p7x06p1_m1m2m3m4_shieldl1/sky130_fd_pr__cap_vpp_02p7x06p1_m1m2m3m4_shieldl1_fingercap.model.spice
Reading file:  /home/cc/ee140/sp25/class/ee140-aax/cadence_finalproj/sky130_release_0.0.4/cells/cap_vpp_11p3x11p3_m1m2m3m4_shieldl1/sky130_fd_pr__cap_vpp_11p3x11p3_m1m2m3m4_shieldl1_wafflecap.model.spice
Reading file:  /home/cc/ee140/sp25/class/ee140-aax/cadence_finalproj/sky130_release_0.0.4/cells/cap_vpp_05p9x05p9_m1m2m3m4_shieldl1/sky130_fd_pr__cap_vpp_05p9x05p9_m1m2m3m4_shieldl1_wafflecap.model.spice
Reading file:  /home/cc/ee140/sp25/class/ee140-aax/cadence_finalproj/sky130_release_0.0.4/cells/cap_vpp_44p7x23p1_pol1m1m2m3m4m5_noshield/sky130_fd_pr__cap_vpp_44p7x23p1_pol1m1m2m3m4m5_noshield.model.spice
Reading file:  /home/cc/ee140/sp25/class/ee140-aax/cadence_finalproj/sky130_release_0.0.4/models/sky130_fd_pr__model__linear.model.spice
Reading file:  /home/cc/ee140/sp25/class/ee140-aax/cadence_finalproj/sky130_release_0.0.4/models/parasitics/sky130_fd_pr__model__parasitic__res_po.model.spice
Reading file:  /home/cc/ee140/sp25/class/ee140-aax/cadence_finalproj/sky130_release_0.0.4/cells/res_xhigh_po/sky130_fd_pr__res_xhigh_po.model.spice
Reading file:  /home/cc/ee140/sp25/class/ee140-aax/cadence_finalproj/sky130_release_0.0.4/cells/res_high_po/sky130_fd_pr__res_high_po.model.spice
Reading file:  /home/cc/ee140/sp25/class/ee140-aax/cadence_finalproj/sky130_release_0.0.4/cells/res_xhigh_po/sky130_fd_pr__res_xhigh_po_0p35.model.spice
Reading file:  /home/cc/ee140/sp25/class/ee140-aax/cadence_finalproj/sky130_release_0.0.4/cells/res_xhigh_po/sky130_fd_pr__res_xhigh_po_0p69.model.spice
Reading file:  /home/cc/ee140/sp25/class/ee140-aax/cadence_finalproj/sky130_release_0.0.4/cells/res_xhigh_po/sky130_fd_pr__res_xhigh_po_1p41.model.spice
Reading file:  /home/cc/ee140/sp25/class/ee140-aax/cadence_finalproj/sky130_release_0.0.4/cells/res_xhigh_po/sky130_fd_pr__res_xhigh_po_2p85.model.spice
Reading file:  /home/cc/ee140/sp25/class/ee140-aax/cadence_finalproj/sky130_release_0.0.4/cells/res_xhigh_po/sky130_fd_pr__res_xhigh_po_5p73.model.spice
Reading file:  /home/cc/ee140/sp25/class/ee140-aax/cadence_finalproj/sky130_release_0.0.4/cells/res_xhigh_po/sky130_fd_pr__res_xhigh_po__base.model.spice
Reading file:  /home/cc/ee140/sp25/class/ee140-aax/cadence_finalproj/sky130_release_0.0.4/cells/res_high_po/sky130_fd_pr__res_high_po_0p35.model.spice
Reading file:  /home/cc/ee140/sp25/class/ee140-aax/cadence_finalproj/sky130_release_0.0.4/cells/res_high_po/sky130_fd_pr__res_high_po_0p69.model.spice
Reading file:  /home/cc/ee140/sp25/class/ee140-aax/cadence_finalproj/sky130_release_0.0.4/cells/res_high_po/sky130_fd_pr__res_high_po_1p41.model.spice
Reading file:  /home/cc/ee140/sp25/class/ee140-aax/cadence_finalproj/sky130_release_0.0.4/cells/res_high_po/sky130_fd_pr__res_high_po_2p85.model.spice
Reading file:  /home/cc/ee140/sp25/class/ee140-aax/cadence_finalproj/sky130_release_0.0.4/cells/res_high_po/sky130_fd_pr__res_high_po_5p73.model.spice
Reading file:  /home/cc/ee140/sp25/class/ee140-aax/cadence_finalproj/sky130_release_0.0.4/cells/rf_nfet_g5v0d10v5/sky130_fd_pr__rf_nfet_g5v0d10v5.pm3.spice
Reading file:  /home/cc/ee140/sp25/class/ee140-aax/cadence_finalproj/sky130_release_0.0.4/cells/rf_nfet_01v8_lvt/sky130_fd_pr__rf_nfet_01v8_lvt.pm3.spice
Reading file:  /home/cc/ee140/sp25/class/ee140-aax/cadence_finalproj/sky130_release_0.0.4/cells/rf_nfet_01v8/sky130_fd_pr__rf_nfet_01v8.pm3.spice
Reading file:  /home/cc/ee140/sp25/class/ee140-aax/cadence_finalproj/sky130_release_0.0.4/cells/rf_pfet_01v8/sky130_fd_pr__rf_pfet_01v8.pm3.spice
Reading file:  /home/cc/ee140/sp25/class/ee140-aax/cadence_finalproj/sky130_release_0.0.4/cells/rf_pfet_01v8_mvt/sky130_fd_pr__rf_pfet_01v8_mvt.pm3.spice
Reading file:  /home/cc/ee140/sp25/class/ee140-aax/cadence_finalproj/sky130_release_0.0.4/models/corners/tt/rf.spice
Reading file:  /home/cc/ee140/sp25/class/ee140-aax/cadence_finalproj/sky130_release_0.0.4/cells/rf_nfet_01v8/sky130_fd_pr__rf_nfet_01v8_b__tt.corner.spice
Reading file:  /home/cc/ee140/sp25/class/ee140-aax/cadence_finalproj/sky130_release_0.0.4/cells/rf_nfet_01v8/sky130_fd_pr__rf_nfet_01v8_b.pm3.spice
Reading file:  /home/cc/ee140/sp25/class/ee140-aax/cadence_finalproj/sky130_release_0.0.4/cells/rf_nfet_01v8_lvt/sky130_fd_pr__rf_nfet_01v8_lvt_b__tt.corner.spice
Reading file:  /home/cc/ee140/sp25/class/ee140-aax/cadence_finalproj/sky130_release_0.0.4/cells/rf_nfet_01v8_lvt/sky130_fd_pr__rf_nfet_01v8_lvt_b.pm3.spice
Reading file:  /home/cc/ee140/sp25/class/ee140-aax/cadence_finalproj/sky130_release_0.0.4/cells/rf_nfet_g5v0d10v5/sky130_fd_pr__rf_nfet_g5v0d10v5_b__tt.corner.spice
Reading file:  /home/cc/ee140/sp25/class/ee140-aax/cadence_finalproj/sky130_release_0.0.4/cells/rf_nfet_g5v0d10v5/sky130_fd_pr__rf_nfet_g5v0d10v5_b.pm3.spice
Reading file:  /home/cc/ee140/sp25/class/ee140-aax/cadence_finalproj/sky130_release_0.0.4/cells/rf_pfet_01v8/sky130_fd_pr__rf_pfet_01v8_b__tt.corner.spice
Reading file:  /home/cc/ee140/sp25/class/ee140-aax/cadence_finalproj/sky130_release_0.0.4/cells/rf_pfet_01v8/sky130_fd_pr__rf_pfet_01v8_b.pm3.spice
Reading file:  /home/cc/ee140/sp25/class/ee140-aax/cadence_finalproj/sky130_release_0.0.4/cells/rf_nfet_01v8/sky130_fd_pr__rf_nfet_01v8__mismatch.corner.spice
Reading file:  /home/cc/ee140/sp25/class/ee140-aax/cadence_finalproj/sky130_release_0.0.4/cells/rf_nfet_01v8_lvt/sky130_fd_pr__rf_nfet_01v8_lvt__mismatch.corner.spice
Reading file:  /home/cc/ee140/sp25/class/ee140-aax/cadence_finalproj/sky130_release_0.0.4/cells/rf_nfet_g5v0d10v5/sky130_fd_pr__rf_nfet_g5v0d10v5__mismatch.corner.spice
Reading file:  /home/cc/ee140/sp25/class/ee140-aax/cadence_finalproj/sky130_release_0.0.4/cells/rf_pfet_01v8/sky130_fd_pr__rf_pfet_01v8__mismatch.corner.spice
Reading file:  /home/cc/ee140/sp25/class/ee140-aax/cadence_finalproj/sky130_release_0.0.4/cells/rf_pfet_01v8_mvt/sky130_fd_pr__rf_pfet_01v8_mvt__tt_discrete.corner.spice
Reading file:  /home/cc/ee140/sp25/class/ee140-aax/cadence_finalproj/sky130_release_0.0.4/cells/pfet_01v8_mvt/sky130_fd_pr__pfet_01v8_mvt.pm3.spice
Reading file:  /home/cc/ee140/sp25/class/ee140-aax/cadence_finalproj/sky130_release_0.0.4/cells/rf_pfet_01v8_mvt/sky130_fd_pr__rf_pfet_01v8_mvt__mismatch.corner.spice
Reading file:  /home/cc/ee140/sp25/class/ee140-aax/cadence_finalproj/sky130_release_0.0.4/cells/pfet_20v0/sky130_fd_pr__pfet_20v0__tt_discrete.corner.spice
Reading file:  /home/cc/ee140/sp25/class/ee140-aax/cadence_finalproj/sky130_release_0.0.4/cells/pfet_20v0/sky130_fd_pr__pfet_20v0__subcircuit.pm3.spice
Reading file:  /home/cc/ee140/sp25/class/ee140-aax/cadence_finalproj/sky130_release_0.0.4/cells/pfet_20v0/sky130_fd_pr__pfet_20v0__parasitic__diode_pw2dn.model.spice
Reading file:  /home/cc/ee140/sp25/class/ee140-aax/cadence_finalproj/sky130_release_0.0.4/cells/nfet_20v0/sky130_fd_pr__nfet_20v0__tt_discrete.corner.spice
Reading file:  /home/cc/ee140/sp25/class/ee140-aax/cadence_finalproj/sky130_release_0.0.4/cells/nfet_20v0/sky130_fd_pr__nfet_20v0__subcircuit.pm3.spice
Reading file:  /home/cc/ee140/sp25/class/ee140-aax/cadence_finalproj/sky130_release_0.0.4/models/parasitics/sky130_fd_pr__model__parasitic__diode_pw2dn__extended_drain.model.spice
Reading file:  /home/cc/ee140/sp25/class/ee140-aax/cadence_finalproj/sky130_release_0.0.4/cells/diode_pw2nd_05v5/sky130_fd_pr__diode_pw2nd_05v5__extended_drain.model.spice
Reading file:  /home/cc/ee140/sp25/class/ee140-aax/cadence_finalproj/sky130_release_0.0.4/cells/nfet_20v0_iso/sky130_fd_pr__nfet_20v0_iso__subcircuit.pm3.spice
Reading file:  /home/cc/ee140/sp25/class/ee140-aax/cadence_finalproj/sky130_release_0.0.4/models/parasitics/sky130_fd_pr__model__parasitic__diode_ps2dn__extended_drain.model.spice
Reading file:  /home/cc/ee140/sp25/class/ee140-aax/cadence_finalproj/sky130_release_0.0.4/cells/nfet_20v0_reverse_iso/sky130_fd_pr__nfet_20v0_reverse_iso__subcircuit.pm3.spice
Reading file:  /home/cc/ee140/sp25/class/ee140-aax/cadence_finalproj/sky130_release_0.0.4/cells/nfet_20v0_zvt/sky130_fd_pr__nfet_20v0_zvt__tt_discrete.corner.spice
Reading file:  /home/cc/ee140/sp25/class/ee140-aax/cadence_finalproj/sky130_release_0.0.4/cells/nfet_20v0_zvt/sky130_fd_pr__nfet_20v0_zvt__subcircuit.pm3.spice
Reading file:  /home/cc/ee140/sp25/class/ee140-aax/cadence_finalproj/sky130_release_0.0.4/cells/nfet_20v0_zvt/sky130_fd_pr__nfet_20v0_zvt__parasitic__diode_ps2dn__extended_drain.model.spice
Reading file:  /home/cc/ee140/sp25/class/ee140-aax/cadence_finalproj/sky130_release_0.0.4/cells/nfet_20v0_nvt/sky130_fd_pr__nfet_20v0_nvt__tt_discrete.corner.spice
Reading file:  /home/cc/ee140/sp25/class/ee140-aax/cadence_finalproj/sky130_release_0.0.4/cells/nfet_20v0_nvt/sky130_fd_pr__nfet_20v0_nvt__subcircuit.pm3.spice
Reading file:  /home/cc/ee140/sp25/class/ee140-aax/cadence_finalproj/sky130_release_0.0.4/cells/nfet_20v0_nvt/sky130_fd_pr__nfet_20v0_nvt__parasitic__diode_ps2dn.model.spice
Time for NDB Parsing: CPU = 548.026 ms, elapsed = 11.0817 s.
Time accumulated: CPU = 655.637 ms, elapsed = 11.0817 s.
Peak resident memory used = 175 Mbytes.

TCP: opening server port eda-3.EECS.Berkeley.EDU:50733

Error found by spectre in `_sub0':`I45', during hierarchy flattening.
    ERROR (SFE-1997): "input.scs" 63: Cannot run the simulation because I45.V1: parameter `val1': Cannot run the simulation because parameter 'VBAT' has been used but no value has been assigned to it. Assign a value to the parameter and rerun the simulation.
        , correct the expression and rerun the simulation.
    ERROR (SFE-1997): "input.scs" 63: Cannot run the simulation because I45.V1: parameter `rise': Cannot run the simulation because parameter 'TRISE_BAT' has been used but no value has been assigned to it. Assign a value to the parameter and rerun the simulation.
        , correct the expression and rerun the simulation.

Time for Elaboration: CPU = 34.306 ms, elapsed = 37.086 ms.
Time accumulated: CPU = 690.12 ms, elapsed = 11.1189 s.
Peak resident memory used = 187 Mbytes.

Licensing Information:
Lic Summary:
[20:50:34.173947] Cdslmd servers:5280@license-srv.eecs.berkeley.edu:5280@bisc.EECS.Berkeley.EDU
[20:50:34.173961] Feature usage summary:
[20:50:34.173962] Virtuoso_Multi_mode_Simulation


Aggregate audit (8:50:34 PM, Wed May 7, 2025):
Time used: CPU = 692 ms, elapsed = 11.1 s, util. = 6.22%.
Time spent in licensing: elapsed = 10.1 s, percentage of total = 90.4%.
Peak memory used = 189 Mbytes.
Simulation started at: 8:50:23 PM, Wed May 7, 2025, ended at: 8:50:34 PM, Wed May 7, 2025, with elapsed time (wall clock): 11.1 s.
spectre completes with 2 errors, 0 warnings, and 0 notices.
spectre terminated prematurely due to fatal error.
